BCY17868_L6_M0 — standalone illustrative conformation
     RDKit          3D

  0  0  0  0  0  0  0  0  0  0999 V3000
M  V30 BEGIN CTAB
M  V30 COUNTS 1027 1137 0 0 0
M  V30 BEGIN ATOM
M  V30 1 O 2.821055 -9.113356 2.440000 1 CHG=-1
M  V30 2 P 2.907458 -8.210407 3.750000 2 VAL=5
M  V30 3 O 3.090528 -9.078366 4.940000 3
M  V30 4 O 1.738109 -7.295819 3.800000 4 CHG=-1
M  V30 5 O 4.232161 -7.359953 3.480000 5
M  V30 6 C 5.480313 -8.064036 3.350000 6
M  V30 7 C 6.614090 -7.067971 3.100000 7 CFG=1
M  V30 8 O 6.436062 -6.503815 1.770000 8
M  V30 9 C 6.837304 -5.133593 1.770000 13 CFG=1
M  V30 10 N 5.671293 -4.304746 1.390000 14
M  V30 11 C 4.337510 -4.651410 1.320000 15
M  V30 12 N 3.549704 -3.675826 0.940000 16
M  V30 13 C 4.420158 -2.603672 0.740000 17
M  V30 14 C 4.148142 -1.276135 0.330000 18
M  V30 15 O 3.067464 -0.759121 0.040000 19
M  V30 16 N 5.325370 -0.512775 0.260000 20
M  V30 17 C 6.596736 -0.985889 0.550000 21
M  V30 18 N 7.579434 -0.092605 0.420000 22
M  V30 19 N 6.847607 -2.224922 0.940000 23
M  V30 20 C 5.712350 -2.973661 1.010000 24
M  V30 21 C 7.380261 -4.829508 3.170000 11 CFG=2
M  V30 22 O 8.772389 -5.105652 3.140000 12
M  V30 23 C 6.645984 -5.859223 4.020000 9 CFG=2
M  V30 24 O 7.297350 -6.144939 5.250000 10
M  V30 25 P 6.882250 -5.338420 6.560000 25 VAL=5
M  V30 26 O 7.505212 -5.969915 7.750000 26
M  V30 27 O 5.404133 -5.200514 6.610000 27 CHG=-1
M  V30 28 O 7.537553 -3.907096 6.290000 28
M  V30 29 C 8.968260 -3.825287 6.160000 29
M  V30 30 C 9.384231 -2.374575 5.910000 30 CFG=1
M  V30 31 O 8.929638 -1.996011 4.580000 31
M  V30 32 C 8.527039 -0.626187 4.580000 36 CFG=1
M  V30 33 N 7.098051 -0.558629 4.200000 37
M  V30 34 C 6.596059 0.670003 3.850000 38
M  V30 35 O 7.265861 1.690819 3.850000 39
M  V30 36 N 5.264572 0.693094 3.500000 40
M  V30 37 C 4.402502 -0.392913 3.470000 41
M  V30 38 O 3.230451 -0.248570 3.130000 42
M  V30 39 C 5.018723 -1.640372 3.850000 43
M  V30 40 C 6.317155 -1.692677 4.190000 44
M  V30 41 C 8.819664 -0.076968 5.980000 34 CFG=2
M  V30 42 O 10.140339 0.442737 5.950000 35
M  V30 43 C 8.758056 -1.340171 6.830000 32 CFG=2
M  V30 44 O 9.460543 -1.228710 8.060000 33
M  V30 45 P 8.675518 -0.774269 9.370000 45 VAL=5
M  V30 46 O 9.540906 -0.969130 10.560000 46
M  V30 47 O 7.357164 -1.456758 9.420000 47 CHG=-1
M  V30 48 O 8.453703 0.784226 9.100000 48
M  V30 49 C 9.613461 1.625995 8.970000 49
M  V30 50 C 9.179773 3.071509 8.720000 50 CFG=1
M  V30 51 O 8.592712 3.144486 7.390000 51
M  V30 52 C 7.513886 4.079707 7.390000 56 CFG=1
M  V30 53 N 6.274881 3.364561 7.010000 57
M  V30 54 C 6.063318 2.016997 6.950000 58
M  V30 55 N 4.863538 1.693663 6.570000 59
M  V30 56 C 4.236009 2.911328 6.370000 60
M  V30 57 C 2.937483 3.262406 5.960000 61
M  V30 58 N 1.988010 2.352492 5.670000 62
M  V30 59 N 2.647977 4.568000 5.860000 63
M  V30 60 C 3.590609 5.466180 6.160000 64
M  V30 61 N 4.839663 5.263094 6.550000 65
M  V30 62 C 5.088598 3.947121 6.630000 66
M  V30 63 C 7.463424 4.699969 8.790000 54 CFG=2
M  V30 64 O 8.294021 5.850788 8.760000 55
M  V30 65 C 8.094013 3.603687 9.640000 52 CFG=2
M  V30 66 O 8.624948 4.076994 10.870000 53
M  V30 67 P 7.718833 4.035308 12.180000 67 VAL=5
M  V30 68 O 8.552338 4.338849 13.370000 68
M  V30 69 O 6.978132 2.748759 12.230000 69 CHG=-1
M  V30 70 O 6.690211 5.226966 11.910000 70
M  V30 71 C 7.211403 6.561872 11.780000 71
M  V30 72 C 6.065525 7.543992 11.530000 72 CFG=1
M  V30 73 O 5.532082 7.288249 10.200000 73
M  V30 74 C 4.118994 7.492422 10.200000 78 CFG=1
M  V30 75 N 3.462708 6.221258 9.820000 79
M  V30 76 C 3.993845 4.949626 9.750000 80
M  V30 77 N 3.138997 4.032220 9.370000 81
M  V30 78 C 1.954891 4.742921 9.170000 82
M  V30 79 C 0.678926 4.286567 8.760000 83
M  V30 80 O 0.319338 3.143823 8.470000 84
M  V30 81 N -0.242692 5.344493 8.690000 85
M  V30 82 C 0.046565 6.669837 8.980000 86
M  V30 83 N -0.976271 7.516867 8.850000 87
M  V30 84 N 1.237890 7.092787 9.370000 88
M  V30 85 C 2.139118 6.074354 9.440000 89
M  V30 86 C 3.741439 7.987117 11.600000 76 CFG=2
M  V30 87 O 3.818676 9.404266 11.570000 77
M  V30 88 C 4.864342 7.405253 12.450000 74 CFG=2
M  V30 89 O 5.055430 8.090379 13.680000 75
M  V30 90 P 4.315445 7.565780 14.990000 90 VAL=5
M  V30 91 O 4.852864 8.271506 16.180000 91
M  V30 92 O 4.387183 6.082979 15.040000 92 CHG=-1
M  V30 93 O 2.806067 8.012870 14.720000 93
M  V30 94 C 2.523486 9.417777 14.590000 94
M  V30 95 C 1.028636 9.625191 14.340000 95 CFG=1
M  V30 96 O 0.717901 9.121794 13.010000 96
M  V30 97 C -0.581531 8.530201 13.010000 101 CFG=1
M  V30 98 N -0.447068 7.105950 12.630000 102
M  V30 99 C -1.599104 6.413655 12.280000 103
M  V30 100 O -2.679102 7.015876 12.300000 104
M  V30 101 N -1.502057 5.103550 11.920000 105
M  V30 102 C -0.313904 4.489038 11.910000 106
M  V30 103 N -0.264661 3.219139 11.550000 107
M  V30 104 C 0.895302 5.183246 12.270000 108
M  V30 105 C 0.773178 6.484065 12.620000 109
M  V30 106 C -1.166501 8.742521 14.410000 99 CFG=2
M  V30 107 O -1.867106 9.976794 14.380000 100
M  V30 108 C 0.092780 8.859514 15.260000 97 CFG=2
M  V30 109 O -0.116550 9.539288 16.490000 98
M  V30 110 P -0.455846 8.698063 17.800000 110 VAL=5
M  V30 111 O -0.384864 9.582274 18.990000 111
M  V30 112 O 0.405591 7.489025 17.850000 112 CHG=-1
M  V30 113 O -1.967540 8.258867 17.530000 113
M  V30 114 C -2.964322 9.288449 17.400000 114
M  V30 115 C -4.334308 8.655413 17.150000 115 CFG=1
M  V30 116 O -4.323839 8.063927 15.820000 116
M  V30 117 C -5.097723 6.864089 15.820000 121 CFG=1
M  V30 118 N -4.215134 5.738209 15.440000 122
M  V30 119 C -2.837818 5.691783 15.370000 123
M  V30 120 N -2.359535 4.532625 14.990000 124
M  V30 121 C -3.498652 3.751844 14.790000 125
M  V30 122 C -3.614878 2.401719 14.380000 126
M  V30 123 O -2.725543 1.599067 14.090000 127
M  V30 124 N -4.960434 2.004145 14.310000 128
M  V30 125 C -6.045073 2.818864 14.600000 129
M  V30 126 N -7.241010 2.241467 14.470000 130
M  V30 127 N -5.933709 4.078125 14.990000 131
M  V30 128 C -4.632548 4.473600 15.060000 132
M  V30 129 C -5.704686 6.726735 17.220000 119 CFG=2
M  V30 130 O -6.961056 7.386893 17.190000 120
M  V30 131 C -4.708191 7.505500 18.070000 117 CFG=2
M  V30 132 O -5.251586 7.964449 19.300000 118
M  V30 133 P -5.082644 7.073248 20.610000 133 VAL=5
M  V30 134 O -5.500598 7.855668 21.800000 134
M  V30 135 O -3.704564 6.521212 20.660000 135 CHG=-1
M  V30 136 O -6.117479 5.886982 20.340000 136
M  V30 137 C -7.512504 6.214884 20.210000 137
M  V30 138 C -8.323370 4.942055 19.960000 138 CFG=1
M  V30 139 O -7.995016 4.449969 18.630000 139
M  V30 140 C -7.998046 3.022210 18.630000 144 CFG=1
M  V30 141 N -6.647093 2.551580 18.250000 145
M  V30 142 C -6.514723 1.230970 17.900000 146
M  V30 143 O -7.446869 0.442426 17.900000 147
M  V30 144 N -5.244625 0.830667 17.550000 148
M  V30 145 C -4.109612 1.627111 17.520000 149
M  V30 146 O -3.026822 1.155831 17.180000 150
M  V30 147 C -4.346160 2.998215 17.900000 151
M  V30 148 C -5.576267 3.417141 18.240000 152
M  V30 149 C -8.434608 2.578718 20.030000 142 CFG=2
M  V30 150 O -9.848502 2.455507 20.000000 143
M  V30 151 C -8.016768 3.772405 20.880000 140 CFG=2
M  V30 152 O -8.721983 3.865051 22.110000 141
M  V30 153 P -8.098353 3.206365 23.420000 153 VAL=5
M  V30 154 O -8.872761 3.638985 24.610000 154
M  V30 155 O -6.640452 3.486315 23.470000 155 CHG=-1
M  V30 156 O -8.328309 1.649050 23.150000 156
M  V30 157 C -9.679384 1.171334 23.020000 157
M  V30 158 C -9.674103 -0.337827 22.770000 158 CFG=1
M  V30 159 O -9.131945 -0.574533 21.440000 159
M  V30 160 C -8.363162 -1.777645 21.440000 164 CFG=1
M  V30 161 N -6.972066 -1.443846 21.060000 165
M  V30 162 C -6.356503 -0.210867 20.990000 166
M  V30 163 N -5.103456 -0.258530 20.610000 167
M  V30 164 C -4.867734 -1.619280 20.410000 168
M  V30 165 C -3.688534 -2.286988 20.000000 169
M  V30 166 O -2.588520 -1.812502 19.710000 170
M  V30 167 N -3.887174 -3.675918 19.930000 171
M  V30 168 C -5.079461 -4.322960 20.220000 172
M  V30 169 N -5.052316 -5.650708 20.090000 173
M  V30 170 N -6.178067 -3.697497 20.610000 174
M  V30 171 C -5.995999 -2.349806 20.680000 175
M  V30 172 C -8.490941 -2.386696 22.840000 162 CFG=2
M  V30 173 O -9.614184 -3.254222 22.810000 163
M  V30 174 C -8.784201 -1.156462 23.690000 160 CFG=2
M  V30 175 O -9.427699 -1.459485 24.920000 161
M  V30 176 P -8.547059 -1.676866 26.230000 176 VAL=5
M  V30 177 O -9.432450 -1.731179 27.420000 177
M  V30 178 O -7.471460 -0.653668 26.280000 178 CHG=-1
M  V30 179 O -7.899245 -3.111595 25.960000 179
M  V30 180 C -8.778108 -4.243503 25.830000 180
M  V30 181 C -7.958354 -5.510626 25.580000 181 CFG=1
M  V30 182 O -7.374244 -5.416921 24.250000 182
M  V30 183 C -6.077336 -6.014025 24.250000 187 CFG=1
M  V30 184 N -5.087045 -4.981603 23.870000 188
M  V30 185 C -5.259841 -3.628522 23.810000 189
M  V30 186 N -4.197908 -2.983298 23.430000 190
M  V30 187 C -3.255578 -3.977539 23.230000 191
M  V30 188 C -1.910665 -3.952399 22.820000 192
M  V30 189 N -1.252749 -2.813720 22.530000 193
M  V30 190 N -1.268404 -5.125383 22.720000 194
M  V30 191 C -1.923024 -6.250886 23.020000 195
M  V30 192 N -3.179142 -6.404339 23.410000 196
M  V30 193 C -3.785337 -5.210069 23.490000 197
M  V30 194 C -5.855829 -6.595579 25.650000 185 CFG=2
M  V30 195 O -6.332378 -7.932433 25.620000 186
M  V30 196 C -6.767233 -5.718755 26.500000 183 CFG=2
M  V30 197 O -7.145038 -6.321395 27.730000 184
M  V30 198 P -6.286532 -6.028567 29.040000 198 VAL=5
M  V30 199 O -7.002256 -6.552595 30.230000 199
M  V30 200 O -5.934176 -4.586453 29.090000 200 CHG=-1
M  V30 201 O -4.966291 -6.885932 28.770000 201
M  V30 202 C -5.094361 -8.313242 28.640000 202
M  V30 203 C -3.719979 -8.936675 28.390000 203 CFG=1
M  V30 204 O -3.279067 -8.542261 27.060000 204
M  V30 205 C -1.865125 -8.344088 27.060000 209 CFG=1
M  V30 206 N -1.589541 -6.940300 26.680000 210
M  V30 207 C -0.300757 -6.623175 26.330000 211
M  V30 208 O 0.611261 -7.434915 26.330000 212
M  V30 209 N -0.083406 -5.309345 25.980000 213
M  V30 210 C -1.031829 -4.297875 25.950000 214
M  V30 211 O -0.717817 -3.159484 25.610000 215
M  V30 212 C -2.355924 -4.725253 26.330000 216
M  V30 213 C -2.597347 -6.002115 26.670000 217
M  V30 214 C -1.364546 -8.713806 28.460000 207 CFG=2
M  V30 215 O -1.043344 -10.096234 28.430000 208
M  V30 216 C -2.605197 -8.468326 29.310000 205 CFG=2
M  V30 217 O -2.597554 -9.179560 30.540000 206
M  V30 218 P -2.033309 -8.469342 31.850000 218 VAL=5
M  V30 219 O -2.352498 -9.296981 33.040000 219
M  V30 220 O -2.515887 -7.065431 31.900000 220 CHG=-1
M  V30 221 O -0.459129 -8.477576 31.580000 221
M  V30 222 C 0.204189 -9.747862 31.450000 222
M  V30 223 C 1.697550 -9.529991 31.200000 223 CFG=1
M  V30 224 O 1.855504 -8.959889 29.870000 224
M  V30 225 C 2.938290 -8.029256 29.870000 229 CFG=1
M  V30 226 N 2.411814 -6.699071 29.490000 230
M  V30 227 C 1.109612 -6.292922 29.430000 231
M  V30 228 N 0.965014 -5.058779 29.050000 232
M  V30 229 C 2.261287 -4.615862 28.850000 233
M  V30 230 C 2.798291 -3.382553 28.440000 234
M  V30 231 N 2.036841 -2.310342 28.150000 235
M  V30 232 N 4.132171 -3.286877 28.340000 236
M  V30 233 C 4.883014 -4.350607 28.640000 237
M  V30 234 N 4.499641 -5.556594 29.030000 238
M  V30 235 C 3.161420 -5.610617 29.110000 239
M  V30 236 C 3.559270 -8.069944 31.270000 227 CFG=2
M  V30 237 O 4.576407 -9.059746 31.240000 228
M  V30 238 C 2.382630 -8.533620 32.120000 225 CFG=2
M  V30 239 O 2.773299 -9.128002 33.350000 226
M  V30 240 P 2.864428 -8.225518 34.660000 240 VAL=5
M  V30 241 O 3.042952 -9.094424 35.850000 241
M  V30 242 O 1.699885 -7.304820 34.710000 242 CHG=-1
M  V30 243 O 4.193566 -7.382012 34.390000 243
M  V30 244 C 5.438015 -8.092620 34.260000 244
M  V30 245 C 6.576992 -7.102505 34.010000 245 CFG=1
M  V30 246 O 6.401920 -6.537425 32.680000 246
M  V30 247 C 6.810331 -5.169322 32.680000 251 CFG=1
M  V30 248 N 5.648676 -4.334381 32.300000 252
M  V30 249 C 4.333440 -4.696104 32.240000 253
M  V30 250 N 3.545026 -3.735678 31.860000 254
M  V30 251 C 4.396572 -2.662659 31.660000 255
M  V30 252 C 4.182184 -1.334705 31.250000 256
M  V30 253 N 2.962163 -0.843794 30.960000 257
M  V30 254 N 5.252970 -0.533577 31.150000 258
M  V30 255 C 6.459482 -1.023081 31.450000 259
M  V30 256 N 6.788392 -2.245046 31.840000 260
M  V30 257 C 5.691451 -3.013468 31.920000 261
M  V30 258 C 7.354873 -4.868084 34.080000 249 CFG=2
M  V30 259 O 8.745536 -5.151514 34.050000 250
M  V30 260 C 6.615214 -5.893941 34.930000 247 CFG=2
M  V30 261 O 7.265075 -6.183064 36.160000 248
M  V30 262 P 6.854204 -5.374382 37.470000 262 VAL=5
M  V30 263 O 7.473851 -6.009131 38.660000 263
M  V30 264 O 5.376830 -5.228738 37.520000 264 CHG=-1
M  V30 265 O 7.516992 -3.946509 37.200000 265
M  V30 266 C 8.948108 -3.872192 37.070000 266
M  V30 267 C 9.371669 -2.423678 36.820000 267 CFG=1
M  V30 268 O 8.919065 -2.042739 35.490000 268
M  V30 269 C 8.523643 -0.670825 35.490000 273 CFG=1
M  V30 270 N 7.095029 -0.595786 35.110000 274
M  V30 271 C 6.599477 0.635457 34.760000 275
M  V30 272 O 7.274614 1.652752 34.760000 276
M  V30 273 N 5.268129 0.665519 34.410000 277
M  V30 274 C 4.400384 -0.415959 34.380000 278
M  V30 275 O 3.229105 -0.265481 34.040000 279
M  V30 276 C 5.010065 -1.666627 34.760000 280
M  V30 277 C 6.308206 -1.725730 35.100000 281
M  V30 278 C 8.819140 -0.123146 36.890000 271 CFG=2
M  V30 279 O 10.142519 0.389636 36.860000 272
M  V30 280 C 8.750919 -1.386009 37.740000 269 CFG=2
M  V30 281 O 9.453980 -1.278228 38.970000 270
M  V30 282 P 8.671345 -0.819683 40.280000 282 VAL=5
M  V30 283 O 9.535701 -1.019072 41.470000 283
M  V30 284 O 7.349435 -1.495260 40.330000 284 CHG=-1
M  V30 285 O 8.457693 0.739952 40.010000 285
M  V30 286 C 9.621843 1.575637 39.880000 286
M  V30 287 C 9.195729 3.023402 39.630000 287 CFG=1
M  V30 288 O 8.609059 3.099452 38.300000 288
M  V30 289 C 7.535145 4.040309 38.300000 293 CFG=1
M  V30 290 N 6.292411 3.331660 37.920000 294
M  V30 291 C 5.187372 4.096739 37.570000 295
M  V30 292 O 5.291803 5.328876 37.590000 296
M  V30 293 N 4.033275 3.469164 37.210000 297
M  V30 294 C 3.962148 2.133397 37.200000 298
M  V30 295 N 2.825022 1.565935 36.840000 299
M  V30 296 C 5.092457 1.316999 37.560000 300
M  V30 297 C 6.227772 1.963609 37.910000 301
M  V30 298 C 7.487930 4.660826 39.700000 291 CFG=2
M  V30 299 O 8.324542 5.807281 39.670000 292
M  V30 300 C 8.112771 3.561257 40.550000 289 CFG=2
M  V30 301 O 8.646176 4.031778 41.780000 290
M  V30 302 P 7.739856 3.994838 43.090000 302 VAL=5
M  V30 303 O 8.574939 4.294010 44.280000 303
M  V30 304 O 6.992429 2.712184 43.140000 304 CHG=-1
M  V30 305 O 6.717488 5.191865 42.820000 305
M  V30 306 C 7.245662 6.524023 42.690000 306
M  V30 307 C 6.104942 7.512129 42.440000 307 CFG=1
M  V30 308 O 5.570167 7.259183 41.110000 308
M  V30 309 C 4.158168 7.470753 41.110000 313 CFG=1
M  V30 310 N 3.495235 6.203042 40.730000 314
M  V30 311 C 4.019706 4.928647 40.660000 315
M  V30 312 N 3.160067 4.015729 40.280000 316
M  V30 313 C 1.979698 4.732620 40.080000 317
M  V30 314 C 0.701361 4.282954 39.670000 318
M  V30 315 O 0.335794 3.142108 39.380000 319
M  V30 316 N -0.214705 5.345690 39.600000 320
M  V30 317 C 0.081487 6.669502 39.890000 321
M  V30 318 N -0.936899 7.521876 39.760000 322
M  V30 319 N 1.275010 7.086208 40.280000 323
M  V30 320 C 2.170893 6.063070 40.350000 324
M  V30 321 C 3.783208 7.967417 42.510000 311 CFG=2
M  V30 322 O 3.867864 9.384142 42.480000 312
M  V30 323 C 4.903049 7.379682 43.360000 309 CFG=2
M  V30 324 O 5.097721 8.063798 44.590000 310
M  V30 325 P 4.355000 7.543081 45.900000 325 VAL=5
M  V30 326 O 4.896107 8.245983 47.090000 326
M  V30 327 O 4.418973 6.059924 45.950000 327 CHG=-1
M  V30 328 O 2.847984 7.998068 45.630000 328
M  V30 329 C 2.572762 9.404435 45.500000 329
M  V30 330 C 1.079019 9.619673 45.250000 330 CFG=1
M  V30 331 O 0.765652 9.117910 43.920000 331
M  V30 332 C -0.536859 8.533129 43.920000 336 CFG=1
M  V30 333 N -0.409856 7.108194 43.540000 337
M  V30 334 C -1.558992 6.444101 43.190000 338
M  V30 335 O -2.661265 6.969165 43.190000 339
M  V30 336 N -1.401166 5.121800 42.840000 340
M  V30 337 C -0.208211 4.415093 42.810000 341
M  V30 338 O -0.192153 3.234297 42.470000 342
M  V30 339 C 0.944076 5.194913 43.190000 343
M  V30 340 C 0.819679 6.488430 43.530000 344
M  V30 341 C -1.120710 8.748509 45.320000 334 CFG=2
M  V30 342 O -1.814842 9.986433 45.290000 335
M  V30 343 C 0.139167 8.858907 46.170000 332 CFG=2
M  V30 344 O -0.066601 9.539768 47.400000 333
M  V30 345 P -0.410297 8.700331 48.710000 345 VAL=5
M  V30 346 O -0.334686 9.584158 49.900000 346
M  V30 347 O 0.444798 7.486799 48.760000 347 CHG=-1
M  V30 348 O -1.924270 8.269056 48.440000 348
M  V30 349 C -2.915648 9.303843 48.310000 349
M  V30 350 C -4.288929 8.677989 48.060000 350 CFG=1
M  V30 351 O -4.281558 8.086456 46.730000 351
M  V30 352 C -5.061713 6.890687 46.730000 356 CFG=1
M  V30 353 N -4.185031 5.760201 46.350000 357
M  V30 354 C -4.786776 4.558385 46.000000 358
M  V30 355 O -6.021335 4.488165 46.020000 359
M  V30 356 N -4.002847 3.504228 45.640000 360
M  V30 357 C -2.670385 3.622022 45.630000 361
M  V30 358 N -1.948362 2.576196 45.270000 362
M  V30 359 C -2.021393 4.856086 45.990000 363
M  V30 360 C -2.821520 5.888966 46.340000 364
M  V30 361 C -5.669387 6.756512 48.130000 354 CFG=2
M  V30 362 O -6.922283 7.423240 48.100000 355
M  V30 363 C -4.668828 7.530049 48.980000 352 CFG=2
M  V30 364 O -5.209813 7.991837 50.210000 353
M  V30 365 P -5.045539 7.099763 51.520000 365 VAL=5
M  V30 366 O -5.459391 7.884361 52.710000 366
M  V30 367 O -3.670368 6.540520 51.570000 367 CHG=-1
M  V30 368 O -6.086571 5.918932 51.250000 368
M  V30 369 C -7.479860 6.254134 51.120000 369
M  V30 370 C -8.297379 4.985569 50.870000 370 CFG=1
M  V30 371 O -7.971606 4.491769 49.540000 371
M  V30 372 C -7.982113 3.064046 49.540000 376 CFG=1
M  V30 373 N -6.633642 2.586349 49.160000 377
M  V30 374 C -5.471547 3.300648 49.100000 378
M  V30 375 N -4.446487 2.598317 48.720000 379
M  V30 376 C -4.964859 1.330330 48.520000 380
M  V30 377 C -4.388496 0.114917 48.110000 381
M  V30 378 N -3.079958 -0.016127 47.820000 382
M  V30 379 N -5.193257 -0.953141 48.010000 383
M  V30 380 C -6.488430 -0.819679 48.310000 384
M  V30 381 N -7.145198 0.262003 48.700000 385
M  V30 382 C -6.306195 1.305950 48.780000 386
M  V30 383 C -8.420990 2.622846 50.940000 374 CFG=2
M  V30 384 O -9.835510 2.507040 50.910000 375
M  V30 385 C -7.996906 3.814328 51.790000 372 CFG=2
M  V30 386 O -8.701626 3.910666 53.020000 373
M  V30 387 P -8.081454 3.248724 54.330000 387 VAL=5
M  V30 388 O -8.853586 3.685392 55.520000 388
M  V30 389 O -6.622107 3.521037 54.380000 389 CHG=-1
M  V30 390 O -8.319561 1.692634 54.060000 390
M  V30 391 C -9.673118 1.221999 53.930000 391
M  V30 392 C -9.675739 -0.287169 53.680000 392 CFG=1
M  V30 393 O -9.134828 -0.526711 52.350000 393
M  V30 394 C -8.372355 -1.733831 52.350000 398 CFG=1
M  V30 395 N -6.979531 -1.407320 51.970000 399
M  V30 396 C -6.160149 -2.451421 51.620000 400
M  V30 397 O -6.524663 -3.616680 51.620000 401
M  V30 398 N -4.873277 -2.108855 51.270000 402
M  V30 399 C -4.341710 -0.828225 51.240000 403
M  V30 400 O -3.174956 -0.645952 50.900000 404
M  V30 401 C -5.276108 0.202688 51.620000 405
M  V30 402 C -6.539193 -0.102726 51.960000 406
M  V30 403 C -8.503321 -2.342205 53.750000 396 CFG=2
M  V30 404 O -9.631092 -3.203838 53.720000 397
M  V30 405 C -8.790136 -1.110452 54.600000 394 CFG=2
M  V30 406 O -9.435211 -1.410102 55.830000 395
M  V30 407 P -8.555722 -1.632091 57.140000 407 VAL=5
M  V30 408 O -9.441385 -1.681767 58.330000 408
M  V30 409 O -7.474780 -0.614539 57.190000 409 CHG=-1
M  V30 410 O -7.915429 -3.070193 56.870000 410
M  V30 411 C -8.800207 -4.197483 56.740000 411
M  V30 412 C -7.987099 -5.468881 56.490000 412 CFG=1
M  V30 413 O -7.402505 -5.378235 55.160000 413
M  V30 414 C -6.108741 -5.982122 55.160000 418 CFG=1
M  V30 415 N -5.113059 -4.954899 54.780000 419
M  V30 416 C -3.859475 -5.390858 54.430000 420
M  V30 417 O -3.536698 -6.568361 54.430000 421
M  V30 418 N -2.961627 -4.407365 54.080000 422
M  V30 419 C -3.206155 -3.042527 54.050000 423
M  V30 420 O -2.322790 -2.258815 53.710000 424
M  V30 421 C -4.549402 -2.679803 54.430000 425
M  V30 422 C -5.447305 -3.619181 54.770000 426
M  V30 423 C -5.890283 -6.564828 56.560000 416 CFG=2
M  V30 424 O -6.373825 -7.899168 56.530000 417
M  V30 425 C -6.797083 -5.683244 57.410000 414 CFG=2
M  V30 426 O -7.178038 -6.283897 58.640000 415
M  V30 427 P -6.318011 -5.995568 59.950000 427 VAL=5
M  V30 428 O -7.036469 -6.515842 61.140000 428
M  V30 429 O -5.958110 -4.555319 60.000000 429 CHG=-1
M  V30 430 O -5.002277 -6.859834 59.680000 430
M  V30 431 C -5.137819 -8.286454 59.550000 431
M  V30 432 C -3.766720 -8.917075 59.300000 432 CFG=1
M  V30 433 O -3.323749 -8.524975 57.970000 433
M  V30 434 C -1.908788 -8.334208 57.970000 438 CFG=1
M  V30 435 N -1.625858 -6.931882 57.590000 439
M  V30 436 C -0.335431 -6.621509 57.240000 440
M  V30 437 O 0.572324 -7.438014 57.240000 441
M  V30 438 N -0.111204 -5.308835 56.890000 442
M  V30 439 C -1.054318 -4.292414 56.860000 443
M  V30 440 O -0.734350 -3.155682 56.520000 444
M  V30 441 C -2.380633 -4.712853 57.240000 445
M  V30 442 C -2.628738 -5.988433 57.580000 446
M  V30 443 C -1.410152 -8.706542 59.370000 436 CFG=2
M  V30 444 O -1.096193 -10.090632 59.340000 437
M  V30 445 C -2.649501 -8.454569 60.220000 434 CFG=2
M  V30 446 O -2.645582 -9.165833 61.450000 435
M  V30 447 O 2.722004 -8.041815 47.100000 10001
M  V30 448 C 2.424726 -9.443686 47.230000 10002
M  V30 449 C 0.927787 -9.635435 47.480000 10003 CFG=1
M  V30 450 O 0.622340 -9.128811 48.810000 10004
M  V30 451 C -0.670825 -8.523643 48.810000 10009 CFG=1
M  V30 452 N -0.521456 -7.100879 49.190000 10010
M  V30 453 C 0.623555 -6.359503 49.250000 10011
M  V30 454 N 0.430941 -5.131938 49.630000 10012
M  V30 455 C -0.936691 -5.053930 49.830000 10013
M  V30 456 C -1.785574 -4.010465 50.240000 10014
M  V30 457 N -1.340512 -2.772982 50.530000 10015
M  V30 458 N -3.096046 -4.277020 50.340000 10016
M  V30 459 C -3.533172 -5.503481 50.040000 10017
M  V30 460 N -2.839607 -6.561946 49.650000 10018
M  V30 461 C -1.536155 -6.254105 49.570000 10019
M  V30 462 C -1.257987 -8.729826 47.410000 10007 CFG=2
M  V30 463 O -1.971479 -9.956695 47.440000 10008
M  V30 464 C -0.000000 -8.860000 46.560000 10005 CFG=2
M  V30 465 O -0.216437 -9.537544 45.330000 10006
M  V30 466 P -0.546905 -8.692813 44.020000 10020 VAL=5
M  V30 467 O -0.485186 -9.577719 42.830000 10021
M  V30 468 O 0.327145 -7.492862 43.970000 10022 CHG=-1
M  V30 469 O -2.053917 -8.237811 44.290000 10023
M  V30 470 C -3.061426 -9.256898 44.420000 10024
M  V30 471 C -4.424708 -8.609550 44.670000 10025 CFG=1
M  V30 472 O -4.408046 -8.018206 46.000000 10026
M  V30 473 C -5.169322 -6.810331 46.000000 10031 CFG=1
M  V30 474 N -4.274992 -5.693755 46.380000 10032
M  V30 475 C -4.864629 -4.504696 46.730000 10033
M  V30 476 O -6.073302 -4.332044 46.730000 10034
M  V30 477 N -4.001422 -3.490663 47.080000 10035
M  V30 478 C -2.616698 -3.562203 47.110000 10036
M  V30 479 O -1.949881 -2.587579 47.450000 10037
M  V30 480 C -2.088480 -4.849397 46.730000 10038
M  V30 481 C -2.907914 -5.857955 46.390000 10039
M  V30 482 C -5.774814 -6.666628 44.600000 10029 CFG=2
M  V30 483 O -7.038029 -7.313594 44.630000 10030
M  V30 484 C -4.786529 -7.455786 43.750000 10027 CFG=2
M  V30 485 O -5.334700 -7.909018 42.520000 10028
M  V30 486 P -5.156435 -7.019635 41.210000 10040 VAL=5
M  V30 487 O -5.582559 -7.797636 40.020000 10041
M  V30 488 O -3.772650 -6.482061 41.160000 10042 CHG=-1
M  V30 489 O -6.178791 -5.822598 41.480000 10043
M  V30 490 C -7.577173 -6.135874 41.610000 10044
M  V30 491 C -8.374666 -4.854624 41.860000 10045 CFG=1
M  V30 492 O -8.041177 -4.366003 43.190000 10046
M  V30 493 C -8.029256 -2.938290 43.190000 10051 CFG=1
M  V30 494 N -6.673448 -2.481833 43.570000 10052
M  V30 495 C -5.496788 -3.199207 43.640000 10053
M  V30 496 N -4.460632 -2.492963 44.020000 10054
M  V30 497 C -4.984047 -1.214980 44.220000 10055
M  V30 498 C -4.339941 -0.022724 44.630000 10056
M  V30 499 O -3.155953 0.159874 44.920000 10057
M  V30 500 N -5.246288 1.048312 44.700000 10058
M  V30 501 C -6.600137 0.962856 44.410000 10059
M  V30 502 N -7.282706 2.102045 44.540000 10060
M  V30 503 N -7.198421 -0.150785 44.020000 10061
M  V30 504 C -6.328026 -1.195693 43.950000 10062
M  V30 505 C -8.461149 -2.490252 41.790000 10049 CFG=2
M  V30 506 O -9.873675 -2.352241 41.820000 10050
M  V30 507 C -8.055832 -3.688248 40.940000 10047 CFG=2
M  V30 508 O -8.761978 -3.773504 39.710000 10048
M  V30 509 P -8.131486 -3.121385 38.400000 10063 VAL=5
M  V30 510 O -8.910381 -3.545871 37.210000 10064
M  V30 511 O -6.676596 -3.416587 38.350000 10065 CHG=-1
M  V30 512 O -8.345121 -1.561747 38.670000 10066
M  V30 513 C -9.691119 -1.069910 38.800000 10067
M  V30 514 C -9.670035 0.439114 39.050000 10068 CFG=1
M  V30 515 O -9.125427 0.670130 40.380000 10069
M  V30 516 C -8.344088 1.865125 40.380000 10074 CFG=1
M  V30 517 N -6.956564 1.516776 40.760000 10075
M  V30 518 C -6.383918 0.278728 40.820000 10076
M  V30 519 N -5.141460 0.296455 41.200000 10077
M  V30 520 C -4.871530 1.639451 41.400000 10078
M  V30 521 C -3.718865 2.332840 41.810000 10079
M  V30 522 N -2.556438 1.717855 42.100000 10080
M  V30 523 N -3.798114 3.667796 41.910000 10081
M  V30 524 C -4.950748 4.273371 41.610000 10082
M  V30 525 N -6.096377 3.735865 41.220000 10083
M  V30 526 C -5.975265 2.402041 41.140000 10084
M  V30 527 C -8.465483 2.475480 38.980000 10072 CFG=2
M  V30 528 O -9.579580 3.354721 39.010000 10073
M  V30 529 C -8.771610 1.248385 38.130000 10070 CFG=2
M  V30 530 O -9.411898 1.558130 36.900000 10071
M  V30 531 P -8.529031 1.766277 35.590000 10085 VAL=5
M  V30 532 O -9.413805 1.829858 34.400000 10086
M  V30 533 O -7.464205 0.731872 35.540000 10087 CHG=-1
M  V30 534 O -7.866228 3.194144 35.860000 10088
M  V30 535 C -8.733190 4.335193 35.990000 10089
M  V30 536 C -7.900212 5.593662 36.240000 10090 CFG=1
M  V30 537 O -7.317115 5.493845 37.570000 10091
M  V30 538 C -6.014025 6.077336 37.570000 10096 CFG=1
M  V30 539 N -5.034600 5.034600 37.950000 10097
M  V30 540 C -3.753447 5.440931 38.300000 10098
M  V30 541 O -3.490964 6.649306 38.280000 10099
M  V30 542 N -2.834902 4.501748 38.660000 10100
M  V30 543 C -3.159689 3.204117 38.670000 10101
M  V30 544 N -2.239688 2.327380 39.030000 10102
M  V30 545 C -4.480084 2.756166 38.310000 10103
M  V30 546 C -5.375080 3.708020 37.960000 10104
M  V30 547 C -5.786441 6.656538 36.170000 10094 CFG=2
M  V30 548 O -6.248964 7.998309 36.200000 10095
M  V30 549 C -6.706976 5.789307 35.320000 10092 CFG=2
M  V30 550 O -7.078450 6.395870 34.090000 10093
M  V30 551 P -6.223057 6.094068 32.780000 10105 VAL=5
M  V30 552 O -6.933255 6.625562 31.590000 10106
M  V30 553 O -5.885823 4.648343 32.730000 10107 CHG=-1
M  V30 554 O -4.893910 6.937560 33.050000 10108
M  V30 555 C -5.007027 8.366133 33.180000 10109
M  V30 556 C -3.626192 8.975140 33.430000 10110 CFG=1
M  V30 557 O -3.189434 8.576130 34.760000 10111
M  V30 558 C -1.777645 8.363162 34.760000 10116 CFG=1
M  V30 559 N -1.516776 6.956564 35.140000 10117
M  V30 560 C -2.392786 5.892722 35.210000 10118
M  V30 561 N -1.839584 4.767393 35.590000 10119
M  V30 562 C -0.500600 5.105517 35.790000 10120
M  V30 563 C 0.589006 4.299846 36.200000 10121
M  V30 564 O 0.602956 3.101942 36.490000 10122
M  V30 565 N 1.777062 5.046241 36.270000 10123
M  V30 566 C 1.883218 6.398624 35.980000 10124
M  V30 567 N 3.107217 6.913870 36.110000 10125
M  V30 568 N 0.864985 7.147853 35.590000 10126
M  V30 569 C -0.292138 6.433370 35.520000 10127
M  V30 570 C -1.273222 8.727617 33.360000 10114 CFG=2
M  V30 571 O -0.937561 10.106606 33.390000 10115
M  V30 572 C -2.516376 8.495143 32.510000 10112 CFG=2
M  V30 573 O -2.501285 9.206257 31.280000 10113
M  V30 574 P -1.944509 8.490170 29.970000 10128 VAL=5
M  V30 575 O -2.255013 9.321106 28.780000 10129
M  V30 576 O -2.441761 7.091389 29.920000 10130 CHG=-1
M  V30 577 O -0.370329 8.481919 30.240000 10131
M  V30 578 C 0.306255 9.745189 30.370000 10132
M  V30 579 C 1.797253 9.511692 30.620000 10133 CFG=1
M  V30 580 O 1.949228 8.939967 31.950000 10134
M  V30 581 C 3.022210 7.998046 31.950000 10139 CFG=1
M  V30 582 N 2.481833 6.673448 32.330000 10140
M  V30 583 C 1.175449 6.280957 32.390000 10141
M  V30 584 N 1.017935 5.048397 32.770000 10142
M  V30 585 C 2.309500 4.591929 32.970000 10143
M  V30 586 C 2.833559 3.353065 33.380000 10144
M  V30 587 N 2.060922 2.288886 33.670000 10145
M  V30 588 N 4.166364 3.243426 33.480000 10146
M  V30 589 C 4.928305 4.299234 33.180000 10147
M  V30 590 N 4.557582 5.509170 32.790000 10148
M  V30 591 C 3.220000 5.577204 32.710000 10149
M  V30 592 C 3.643581 8.032230 30.550000 10137 CFG=2
M  V30 593 O 4.671028 9.011326 30.580000 10138
M  V30 594 C 2.471861 8.508202 29.700000 10135 CFG=2
M  V30 595 O 2.868733 9.098460 28.470000 10136
M  V30 596 P 2.950407 8.195071 27.160000 10150 VAL=5
M  V30 597 O 3.138020 9.062060 25.970000 10151
M  V30 598 O 1.776286 7.286618 27.110000 10152 CHG=-1
M  V30 599 O 4.270639 7.337693 27.430000 10153
M  V30 600 C 5.522461 8.035230 27.560000 10154
M  V30 601 C 6.651007 7.033243 27.810000 10155 CFG=1
M  V30 602 O 6.470027 6.470027 29.140000 10156
M  V30 603 C 6.864089 5.097723 29.140000 10161 CFG=1
M  V30 604 N 5.693755 4.274992 29.520000 10162
M  V30 605 C 5.928243 2.968643 29.870000 10163
M  V30 606 O 7.040755 2.465637 29.870000 10164
M  V30 607 N 4.816404 2.235700 30.220000 10165
M  V30 608 C 3.506622 2.690726 30.250000 10166
M  V30 609 O 2.594370 1.940836 30.590000 10167
M  V30 610 C 3.358493 4.074178 29.870000 10168
M  V30 611 C 4.426769 4.814075 29.530000 10169
M  V30 612 C 7.405447 4.790799 27.740000 10159 CFG=2
M  V30 613 O 8.799002 5.059651 27.770000 10160
M  V30 614 C 6.676572 5.824345 26.890000 10157 CFG=2
M  V30 615 O 7.329425 6.106647 25.660000 10158
M  V30 616 P 6.910108 5.302312 24.350000 10170 VAL=5
M  V30 617 O 7.536368 5.930537 23.160000 10171
M  V30 618 O 5.431289 5.172147 24.300000 10172 CHG=-1
M  V30 619 O 7.557907 3.867576 24.620000 10173
M  V30 620 C 8.988166 3.778277 24.750000 10174
M  V30 621 C 9.396536 2.325407 25.000000 10175 CFG=1
M  V30 622 O 8.939967 1.949228 26.330000 10176
M  V30 623 C 8.530201 0.581531 26.330000 10181 CFG=1
M  V30 624 N 7.100879 0.521456 26.710000 10182
M  V30 625 C 6.592461 -0.704531 27.060000 10183
M  V30 626 O 7.256908 -1.728839 27.060000 10184
M  V30 627 N 5.260871 -0.720650 27.410000 10185
M  V30 628 C 4.404498 0.369856 27.440000 10186
M  V30 629 O 3.231708 0.231652 27.780000 10187
M  V30 630 C 5.027243 1.614071 27.060000 10188
M  V30 631 C 6.325931 1.659577 26.720000 10189
M  V30 632 C 8.819946 0.030788 24.930000 10179 CFG=2
M  V30 633 O 10.137882 -0.495825 24.960000 10180
M  V30 634 C 8.764953 1.294296 24.080000 10177 CFG=2
M  V30 635 O 9.466847 1.179158 22.850000 10178
M  V30 636 P 8.679453 0.728834 21.540000 10190 VAL=5
M  V30 637 O 9.545850 0.919161 20.350000 10191
M  V30 638 O 7.364690 1.418216 21.490000 10192 CHG=-1
M  V30 639 O 8.449481 -0.828479 21.810000 10193
M  V30 640 C 9.604816 -1.676309 21.940000 10194
M  V30 641 C 9.163565 -3.119532 22.190000 10195 CFG=1
M  V30 642 O 8.576130 -3.189434 23.520000 10196
M  V30 643 C 7.492422 -4.118994 23.520000 10201 CFG=1
M  V30 644 N 6.257178 -3.397370 23.900000 10202
M  V30 645 C 6.052674 -2.048717 23.960000 10203
M  V30 646 N 4.854604 -1.719105 24.340000 10204
M  V30 647 C 4.220707 -2.933468 24.540000 10205
M  V30 648 C 2.920361 -3.277742 24.950000 10206
M  V30 649 N 1.975665 -2.362869 25.240000 10207
M  V30 650 N 2.624023 -4.581802 25.050000 10208
M  V30 651 C 3.561939 -5.484906 24.750000 10209
M  V30 652 N 4.812039 -5.288362 24.360000 10210
M  V30 653 C 5.067862 -3.973711 24.280000 10211
M  V30 654 C 7.438713 -4.738983 22.120000 10199 CFG=2
M  V30 655 O 8.263273 -5.894135 22.150000 10200
M  V30 656 C 8.075033 -3.646017 21.270000 10197 CFG=2
M  V30 657 O 8.603482 -4.122098 20.040000 10198
M  V30 658 P 7.697599 -4.075669 18.730000 10212 VAL=5
M  V30 659 O 8.529503 -4.383569 17.540000 10213
M  V30 660 O 6.963644 -2.785259 18.680000 10214 CHG=-1
M  V30 661 O 6.662751 -5.261924 19.000000 10215
M  V30 662 C 7.176947 -6.599541 19.130000 10216
M  V30 663 C 6.025942 -7.575647 19.380000 10217 CFG=1
M  V30 664 O 5.493845 -7.317115 20.710000 10218
M  V30 665 C 4.079707 -7.513886 20.710000 10223 CFG=1
M  V30 666 N 3.430086 -6.239304 21.090000 10224
M  V30 667 C 2.103730 -6.287386 21.440000 10225
M  V30 668 O 1.448988 -7.317925 21.440000 10226
M  V30 669 N 1.534759 -5.083367 21.790000 10227
M  V30 670 C 2.169795 -3.850765 21.820000 10228
M  V30 671 O 1.555924 -2.841954 22.160000 10229
M  V30 672 C 3.560317 -3.899044 21.440000 10230
M  V30 673 C 4.142311 -5.060915 21.100000 10231
M  V30 674 C 3.699567 -8.006597 19.310000 10221 CFG=2
M  V30 675 O 3.769384 -9.424131 19.340000 10222
M  V30 676 C 4.825502 -7.430621 18.460000 10219 CFG=2
M  V30 677 O 5.013000 -8.116738 17.230000 10220
M  V30 678 P 4.275772 -7.588272 15.920000 10232 VAL=5
M  V30 679 O 4.809488 -8.296802 14.730000 10233
M  V30 680 O 4.355272 -6.105866 15.870000 10234 CHG=-1
M  V30 681 O 2.764074 -8.027453 16.190000 10235
M  V30 682 C 2.474140 -9.430861 16.320000 10236
M  V30 683 C 0.978225 -9.630445 16.570000 10237 CFG=1
M  V30 684 O 0.670130 -9.125427 17.900000 10238
M  V30 685 C -0.626187 -8.527039 17.900000 10243 CFG=1
M  V30 686 N -0.484269 -7.103512 18.280000 10244
M  V30 687 C -1.632663 -6.405194 18.630000 10245
M  V30 688 O -2.715801 -7.001752 18.610000 10246
M  V30 689 N -1.528758 -5.095616 18.990000 10247
M  V30 690 C -0.337404 -4.487333 19.000000 10248
M  V30 691 N -0.281513 -3.217709 19.360000 10249
M  V30 692 C 0.868150 -5.187862 18.640000 10250
M  V30 693 C 0.739217 -6.488024 18.290000 10251
M  V30 694 C -1.212261 -8.736293 16.500000 10241 CFG=2
M  V30 695 O -1.919319 -9.966881 16.530000 10242
M  V30 696 C 0.046391 -8.859879 15.650000 10239 CFG=2
M  V30 697 O -0.166496 -9.538547 14.420000 10240
M  V30 698 P -0.501383 -8.695557 13.110000 10252 VAL=5
M  V30 699 O -0.435031 -9.580128 11.920000 10253
M  V30 700 O 0.366373 -7.491046 13.060000 10254 CHG=-1
M  V30 701 O -2.010756 -8.248452 13.380000 10255
M  V30 702 C -3.012916 -9.272801 13.510000 10256
M  V30 703 C -4.379568 -8.632600 13.760000 10257 CFG=1
M  V30 704 O -4.366003 -8.041177 15.090000 10258
M  V30 705 C -5.133593 -6.837304 15.090000 10263 CFG=1
M  V30 706 N -4.245121 -5.716060 15.470000 10264
M  V30 707 C -2.881107 -5.703623 15.530000 10265
M  V30 708 N -2.385975 -4.563948 15.910000 10266
M  V30 709 C -3.498905 -3.765270 16.110000 10267
M  V30 710 C -3.656524 -2.429389 16.520000 10268
M  V30 711 N -2.617669 -1.623024 16.810000 10269
M  V30 712 N -4.905820 -1.952263 16.620000 10270
M  V30 713 C -5.932068 -2.753574 16.320000 10271
M  V30 714 N -5.913626 -4.018896 15.930000 10272
M  V30 715 C -4.648136 -4.457402 15.850000 10273
M  V30 716 C -5.739829 -6.696773 13.690000 10261 CFG=2
M  V30 717 O -6.999638 -7.350344 13.720000 10262
M  V30 718 C -4.747425 -7.480745 12.840000 10259 CFG=2
M  V30 719 O -5.293216 -7.936842 11.610000 10260
M  V30 720 P -5.119610 -7.046538 10.300000 10274 VAL=5
M  V30 721 O -5.541655 -7.826759 9.110000 10275
M  V30 722 O -3.738658 -6.501726 10.250000 10276 CHG=-1
M  V30 723 O -6.148219 -5.854870 10.570000 10277
M  V30 724 C -7.544942 -6.175464 10.700000 10278
M  V30 725 C -8.349132 -4.898407 10.950000 10279 CFG=1
M  V30 726 O -8.018206 -4.408046 12.280000 10280
M  V30 727 C -8.013761 -2.980291 12.280000 10285 CFG=1
M  V30 728 N -6.660361 -2.516741 12.660000 10286
M  V30 729 C -6.503480 -1.181883 13.010000 10287
M  V30 730 O -7.496781 -0.445391 12.990000 10288
M  V30 731 N -5.269510 -0.731205 13.370000 10289
M  V30 732 C -4.220500 -1.561210 13.380000 10290
M  V30 733 N -3.042846 -1.083509 13.740000 10291
M  V30 734 C -4.355597 -2.948961 13.020000 10292
M  V30 735 C -5.591424 -3.372963 12.670000 10293
M  V30 736 C -8.447994 -2.534520 10.880000 10283 CFG=2
M  V30 737 O -9.861224 -2.403907 10.910000 10284
M  V30 738 C -8.036410 -3.730377 10.030000 10281 CFG=2
M  V30 739 O -8.742100 -3.819330 8.800000 10282
M  V30 740 P -8.115031 -3.163918 7.490000 10294 VAL=5
M  V30 741 O -8.891693 -3.592477 6.300000 10295
M  V30 742 O -6.658615 -3.451498 7.440000 10296 CHG=-1
M  V30 743 O -8.336829 -1.605420 7.760000 10297
M  V30 744 C -9.685384 -1.120637 7.890000 10298
M  V30 745 C -9.672202 0.388476 8.140000 10299 CFG=1
M  V30 746 O -9.128811 0.622340 9.470000 10300
M  V30 747 C -8.353740 1.821410 9.470000 10305 CFG=1
M  V30 748 N -6.964411 1.480331 9.850000 10306
M  V30 749 C -6.355312 0.244146 9.920000 10307
M  V30 750 N -5.102032 0.285248 10.300000 10308
M  V30 751 C -4.859189 1.644745 10.500000 10309
M  V30 752 C -3.676509 2.306270 10.910000 10310
M  V30 753 O -2.578995 1.826030 11.200000 10311
M  V30 754 N -3.867874 3.696221 10.980000 10312
M  V30 755 C -5.056756 4.349496 10.690000 10313
M  V30 756 N -5.022660 5.677084 10.820000 10314
M  V30 757 N -6.158623 3.729794 10.300000 10315
M  V30 758 C -5.983614 2.381169 10.230000 10316
M  V30 759 C -8.478328 2.431121 8.070000 10303 CFG=2
M  V30 760 O -9.597014 3.304517 8.100000 10304
M  V30 761 C -8.778026 1.202440 7.220000 10301 CFG=2
M  V30 762 O -9.419928 1.508828 5.990000 10302
M  V30 763 P -8.538162 1.721595 4.680000 10317 VAL=5
M  V30 764 O -9.423257 1.780543 3.490000 10318
M  V30 765 O -7.467935 0.692779 4.630000 10319 CHG=-1
M  V30 766 O -7.882845 3.152913 4.950000 10320
M  V30 767 C -8.755769 4.289407 5.080000 10321
M  V30 768 C -7.929392 5.552220 5.330000 10322 CFG=1
M  V30 769 O -7.345780 5.455458 6.660000 10323
M  V30 770 C -6.045763 6.045763 6.660000 10328 CFG=1
M  V30 771 N -5.060892 5.008170 7.040000 10329
M  V30 772 C -3.781884 5.421204 7.390000 10330
M  V30 773 O -3.525731 6.630936 7.370000 10331
M  V30 774 N -2.858434 4.486842 7.750000 10332
M  V30 775 C -3.176422 3.187529 7.760000 10333
M  V30 776 N -2.251843 2.315621 8.120000 10334
M  V30 777 C -4.494453 2.732671 7.400000 10335
M  V30 778 C -5.394422 3.679825 7.050000 10336
M  V30 779 C -5.821215 6.626150 5.260000 10326 CFG=2
M  V30 780 O -6.290757 7.965480 5.290000 10327
M  V30 781 C -6.737197 5.754110 4.410000 10324 CFG=2
M  V30 782 O -7.111841 6.358720 3.180000 10325
M  V30 783 P -6.254880 6.061400 1.870000 10337 VAL=5
M  V30 784 O -6.967851 6.589169 0.680000 10338
M  V30 785 O -5.910081 4.617461 1.820000 10339 CHG=-1
M  V30 786 O -4.930168 6.911841 2.140000 10340
M  V30 787 C -5.050763 8.339802 2.270000 10341
M  V30 788 C -3.673136 8.956030 2.520000 10342 CFG=1
M  V30 789 O -3.234295 8.559313 3.850000 10343
M  V30 790 C -1.821410 8.353740 3.850000 10348 CFG=1
M  V30 791 N -1.553180 6.948527 4.230000 10349
M  V30 792 C -0.266074 6.624659 4.580000 10350
M  V30 793 O 0.650182 7.431612 4.580000 10351
M  V30 794 N -0.055605 5.309709 4.930000 10352
M  V30 795 C -1.009311 4.303219 4.960000 10353
M  V30 796 O -0.701264 3.163199 5.300000 10354
M  V30 797 C -2.331151 4.737524 4.580000 10355
M  V30 798 C -2.565885 6.015633 4.240000 10356
M  V30 799 C -1.318902 8.720831 2.450000 10346 CFG=2
M  V30 800 O -0.990466 10.101558 2.480000 10347
M  V30 801 C -2.560822 8.481851 1.600000 10344 CFG=2
M  V30 802 O -2.549454 9.193035 0.370000 10345
M  V30 803 P -1.988936 8.479872 -0.940000 10357 VAL=5
M  V30 804 O -2.303787 9.309171 -2.130000 10358
M  V30 805 O -2.478858 7.078507 -0.990000 10359 CHG=-1
M  V30 806 O -0.414735 8.479864 -0.670000 10360
M  V30 807 C 0.255225 9.746659 -0.540000 10361
M  V30 808 C 1.747425 9.520972 -0.290000 10362 CFG=1
M  V30 809 O 1.902392 8.950051 1.040000 10363
M  V30 810 C 2.980291 8.013761 1.040000 10368 CFG=1
M  V30 811 N 2.446857 6.686351 1.420000 10369
M  V30 812 C 1.142546 6.287025 1.480000 10370
M  V30 813 N 0.991488 5.053657 1.860000 10371
M  V30 814 C 2.285425 4.603958 2.060000 10372
M  V30 815 C 2.815964 3.367855 2.470000 10373
M  V30 816 N 2.048909 2.299646 2.760000 10374
M  V30 817 N 4.149324 3.265196 2.570000 10375
M  V30 818 C 4.905726 4.324980 2.270000 10376
M  V30 819 N 4.528673 5.532957 1.880000 10377
M  V30 820 C 3.190754 5.593987 1.800000 10378
M  V30 821 C 3.601475 8.051197 -0.360000 10366 CFG=2
M  V30 822 O 4.623781 9.035660 -0.330000 10367
M  V30 823 C 2.427279 8.521028 -1.210000 10364 CFG=2
M  V30 824 O 2.821055 9.113356 -2.440000 10365
M  V30 825 P 2.907458 8.210407 -3.750000 10379 VAL=5
M  V30 826 O 3.090528 9.078366 -4.940000 10380
M  V30 827 O 1.738109 7.295819 -3.800000 10381 CHG=-1
M  V30 828 O 4.232161 7.359953 -3.480000 10382
M  V30 829 C 5.480313 8.064036 -3.350000 10383
M  V30 830 C 6.614090 7.067971 -3.100000 10384 CFG=1
M  V30 831 O 6.436062 6.503815 -1.770000 10385
M  V30 832 C 6.837304 5.133593 -1.770000 10390 CFG=1
M  V30 833 N 5.671293 4.304746 -1.390000 10391
M  V30 834 C 5.899992 2.980301 -1.040000 10392
M  V30 835 O 7.061564 2.556250 -1.060000 10393
M  V30 836 N 4.844837 2.197716 -0.680000 10394
M  V30 837 C 3.603291 2.695606 -0.670000 10395
M  V30 838 N 2.609807 1.903104 -0.310000 10396
M  V30 839 C 3.338682 4.064579 -1.030000 10397
M  V30 840 C 4.403195 4.822113 -1.380000 10398
M  V30 841 C 7.380261 4.829508 -3.170000 10388 CFG=2
M  V30 842 O 8.772389 5.105652 -3.140000 10389
M  V30 843 C 6.645984 5.859223 -4.020000 10386 CFG=2
M  V30 844 O 7.297350 6.144939 -5.250000 10387
M  V30 845 P 6.882250 5.338420 -6.560000 10399 VAL=5
M  V30 846 O 7.505212 5.969915 -7.750000 10400
M  V30 847 O 5.404133 5.200514 -6.610000 10401 CHG=-1
M  V30 848 O 7.537553 3.907096 -6.290000 10402
M  V30 849 C 8.968260 3.825287 -6.160000 10403
M  V30 850 C 9.384231 2.374575 -5.910000 10404 CFG=1
M  V30 851 O 8.929638 1.996011 -4.580000 10405
M  V30 852 C 8.527039 0.626187 -4.580000 10410 CFG=1
M  V30 853 N 7.098051 0.558629 -4.200000 10411
M  V30 854 C 6.596059 -0.670003 -3.850000 10412
M  V30 855 O 7.265861 -1.690819 -3.850000 10413
M  V30 856 N 5.264572 -0.693094 -3.500000 10414
M  V30 857 C 4.402502 0.392913 -3.470000 10415
M  V30 858 O 3.230451 0.248570 -3.130000 10416
M  V30 859 C 5.018723 1.640372 -3.850000 10417
M  V30 860 C 6.317155 1.692677 -4.190000 10418
M  V30 861 C 8.819664 0.076968 -5.980000 10408 CFG=2
M  V30 862 O 10.140339 -0.442737 -5.950000 10409
M  V30 863 C 8.758056 1.340171 -6.830000 10406 CFG=2
M  V30 864 O 9.460543 1.228710 -8.060000 10407
M  V30 865 P 8.675518 0.774269 -9.370000 10419 VAL=5
M  V30 866 O 9.540906 0.969130 -10.560000 10420
M  V30 867 O 7.357164 1.456758 -9.420000 10421 CHG=-1
M  V30 868 O 8.453703 -0.784226 -9.100000 10422
M  V30 869 C 9.613461 -1.625995 -8.970000 10423
M  V30 870 C 9.179773 -3.071509 -8.720000 10424 CFG=1
M  V30 871 O 8.592712 -3.144486 -7.390000 10425
M  V30 872 C 7.513886 -4.079707 -7.390000 10430 CFG=1
M  V30 873 N 6.274881 -3.364561 -7.010000 10431
M  V30 874 C 5.188692 -4.127272 -6.660000 10432
M  V30 875 O 5.200852 -5.348153 -6.660000 10433
M  V30 876 N 4.055757 -3.427380 -6.310000 10434
M  V30 877 C 3.917020 -2.047768 -6.280000 10435
M  V30 878 O 2.852747 -1.536046 -5.940000 10436
M  V30 879 C 5.109504 -1.330926 -6.660000 10437
M  V30 880 C 6.230406 -1.988376 -7.000000 10438
M  V30 881 C 7.463424 -4.699969 -8.790000 10428 CFG=2
M  V30 882 O 8.294021 -5.850788 -8.760000 10429
M  V30 883 C 8.094013 -3.603687 -9.640000 10426 CFG=2
M  V30 884 O 8.624948 -4.076994 -10.870000 10427
M  V30 885 P 7.595956 -3.642689 -12.146289 39901 VAL=5
M  V30 886 O 8.179702 -4.100259 -13.637376 30021
M  V30 887 C 8.316928 -2.993773 -14.526153 30020
M  V30 888 C 9.488911 -3.309441 -15.378319 30019
M  V30 889 C 9.890965 -2.230279 -16.391276 30018
M  V30 890 C 11.170099 -2.787755 -16.990153 30017
M  V30 891 C 11.848011 -1.878789 -17.988195 30016
M  V30 892 C 13.141372 -2.579376 -18.333784 30015
M  V30 893 N 13.969660 -1.860451 -19.223546 30014
M  V30 894 C 14.426500 -0.527609 -18.978486 30012
M  V30 895 O 15.268770 0.071871 -19.854792 30011
M  V30 896 C 15.734050 1.449570 -19.701785 30010
M  V30 897 C 14.596870 2.287596 -20.038676 30009 CFG=2
M  V30 898 C 14.002456 2.186318 -21.467027 30003 CFG=2
M  V30 899 C 14.841094 1.490105 -22.394235 30002
M  V30 900 C 15.807079 2.190110 -23.308753 30001
M  V30 901 C 16.965556 2.694776 -22.543275 30008
M  V30 902 N 18.090300 2.003258 -22.376649 20101
M  V30 903 N 18.945144 2.678187 -21.615703 20100
M  V30 904 N 18.383293 3.824473 -21.279810 20099
M  V30 905 C 18.914976 4.946671 -20.529435 20098
M  V30 906 C 19.924203 5.737276 -21.331306 20097
M  V30 907 C 20.335460 7.025696 -20.621543 20096
M  V30 908 C 21.509681 7.704600 -21.279735 20095
M  V30 909 C 21.783682 9.059620 -20.689139 20094 CFG=2
M  V30 910 N 21.956255 9.132828 -19.284425 20093
M  V30 911 C 22.973340 8.891785 -18.404343 20091
M  V30 912 C 22.953869 9.051100 -16.921459 20088 CFG=1
M  V30 913 N 24.231654 8.622552 -16.354443 20087
M  V30 914 C 24.286800 7.789723 -15.159865 20085
M  V30 915 O 23.170523 7.562248 -14.679361 20086
M  V30 916 C 25.576039 7.300031 -14.624591 20076 CFG=2
M  V30 917 C 26.116670 6.365842 -15.707628 20077
M  V30 918 C 27.410407 5.771957 -15.335835 20078
M  V30 919 C 28.633459 6.328675 -15.621031 20079
M  V30 920 C 29.797194 5.670449 -15.216485 20080
M  V30 921 C 29.770290 4.483379 -14.546016 20081
M  V30 922 O 30.926992 3.803733 -14.131620 20082
M  V30 923 C 28.538545 3.916909 -14.258628 20083
M  V30 924 C 27.386632 4.567166 -14.655849 20084
M  V30 925 N 25.295446 6.546106 -13.415447 20075
M  V30 926 C 25.962060 6.894386 -12.173288 20073
M  V30 927 O 26.702990 7.878633 -12.264988 20074
M  V30 928 C 25.801900 6.176888 -10.909116 20070 CFG=2
M  V30 929 C 27.177328 5.755869 -10.348056 20071
M  V30 930 O 26.913415 5.287232 -9.048899 20072
M  V30 931 N 24.907408 5.034866 -10.936407 20069
M  V30 932 C 23.966633 4.806320 -9.834703 20067
M  V30 933 O 24.104954 5.657252 -8.943057 20068
M  V30 934 C 23.002784 3.694912 -9.832585 20062 CFG=2
M  V30 935 C 22.814986 2.937351 -8.583106 20063 CFG=1
M  V30 936 C 24.065116 2.311130 -8.007750 20064
M  V30 937 C 21.863399 3.453469 -7.591945 20065
M  V30 938 C 22.069805 4.787359 -6.978875 20066
M  V30 939 N 23.064953 2.825961 -11.012359 20061
M  V30 940 C 22.841513 3.311471 -12.337507 20059
M  V30 941 O 22.729231 4.548320 -12.414961 20060
M  V30 942 C 22.766805 2.406192 -13.536294 20056 CFG=1
M  V30 943 N 22.522289 1.035874 -13.221378 20055
M  V30 944 C 23.509591 0.035345 -13.001143 20053
M  V30 945 O 24.685382 0.434365 -13.031203 20054
M  V30 946 C 23.212592 -1.387925 -12.738340 20052
M  V30 947 N 21.786347 -1.603032 -12.876312 20051
M  V30 948 C 21.229041 -1.409807 -14.232848 20049
M  V30 949 O 22.133154 -1.091731 -15.008633 20050
M  V30 950 C 19.807086 -1.607574 -14.470420 20044 CFG=2
M  V30 951 C 19.044151 -0.923054 -15.499977 20045
M  V30 952 C 19.400579 -1.191778 -16.912807 20046
M  V30 953 C 18.396225 -0.397228 -17.823138 20047
M  V30 954 C 20.731910 -0.789018 -17.435812 20048
M  V30 955 N 19.053420 -1.682824 -13.195495 20043
M  V30 956 C 18.627454 -2.911087 -12.616241 20041
M  V30 957 O 18.980766 -3.933567 -13.206456 20042
M  V30 958 C 17.815938 -2.954616 -11.384643 20034 CFG=2
M  V30 959 C 16.515778 -3.663281 -11.684183 20035
M  V30 960 C 16.764532 -5.028399 -12.157889 20036
M  V30 961 C 16.866782 -5.552401 -13.430771 20037
M  V30 962 N 17.056481 -6.872128 -13.343789 20038
M  V30 963 C 17.080315 -7.226809 -12.041671 20039
M  V30 964 N 16.900963 -6.090435 -11.315538 20040
M  V30 965 N 17.524602 -1.602075 -10.865137 20033
M  V30 966 C 17.796890 -1.266887 -9.491858 20031
M  V30 967 O 18.320832 -2.209845 -8.857973 20032
M  V30 968 C 17.534890 -0.013696 -8.838297 20029 CFG=2
M  V30 969 C 16.389910 -0.360891 -7.802227 20030
M  V30 970 N 16.972148 1.053241 -9.661342 20028
M  V30 971 C 17.026842 2.416240 -9.222789 20026
M  V30 972 O 17.542484 2.572414 -8.099772 20027
M  V30 973 C 16.527008 3.566584 -9.985344 20021 CFG=2
M  V30 974 C 17.305876 3.823867 -11.262992 20022
M  V30 975 C 17.243137 2.723752 -12.231047 20023
M  V30 976 O 16.583571 1.681736 -12.171219 20024
M  V30 977 O 18.047181 2.879025 -13.390433 20025 CHG=-1
M  V30 978 N 16.484487 4.758787 -9.154766 20020
M  V30 979 C 15.236472 5.452009 -9.032574 20018
M  V30 980 O 14.324724 4.970400 -9.743498 20019
M  V30 981 C 14.937812 6.606562 -8.206374 20014 CFG=1
M  V30 982 N 15.829200 7.742941 -8.242632 20013
M  V30 983 C 17.159476 7.631894 -7.754737 20011
M  V30 984 O 17.398961 6.495575 -7.276799 20012
M  V30 985 C 18.204276 8.636798 -7.738028 20008 CFG=2
M  V30 986 C 18.172330 9.157034 -6.231530 20009
M  V30 987 O 19.206492 10.016643 -6.000766 20010
M  V30 988 N 18.091243 9.771356 -8.578062 20007
M  V30 989 C 19.182560 10.701164 -8.860587 20005
M  V30 990 O 20.231311 10.481570 -8.298465 20006
M  V30 991 C 18.875903 11.821244 -9.801888 20002 CFG=1
M  V30 992 N 19.513450 13.035449 -9.216767 20001 CHG=1
M  V30 993 C 19.648386 11.669494 -11.118295 20003
M  V30 994 S 19.394495 10.057860 -11.776031 20004
M  V30 995 C 17.692671 9.669252 -12.287995 20113
M  V30 996 C 17.758035 8.280743 -12.776772 20111
M  V30 997 O 18.011026 7.386284 -11.960722 20112
M  V30 998 N 17.575871 7.778928 -14.080667 20105
M  V30 999 C 17.682315 6.321878 -14.324893 20106
M  V30 1000 N 18.529997 6.159883 -15.616277 20107
M  V30 1001 C 17.802295 6.855860 -16.645988 20108
M  V30 1002 N 18.081223 8.270589 -16.206948 20109
M  V30 1003 C 17.310217 8.731580 -15.119915 20110
M  V30 1004 C 19.114759 9.024455 -16.811059 20117
M  V30 1005 O 19.706576 8.344276 -17.642566 20118
M  V30 1006 C 19.481408 10.415344 -16.529464 20119
M  V30 1007 S 20.997198 10.616110 -15.688464 20090
M  V30 1008 C 22.566018 10.409690 -16.450073 20089
M  V30 1009 C 19.730603 5.508520 -15.524907 20114
M  V30 1010 O 19.906147 5.170534 -14.267707 20115
M  V30 1011 C 20.868957 5.073733 -16.333070 20116
M  V30 1012 S 22.229735 4.467536 -15.252936 20058
M  V30 1013 C 21.747733 2.899403 -14.541233 20057
M  V30 1014 C 15.107553 8.833081 -8.736256 20017
M  V30 1015 C 13.617593 8.543115 -8.514850 20016
M  V30 1016 C 13.550190 7.075624 -8.502312 20015
M  V30 1017 O 24.099420 8.477964 -18.871610 20092
M  V30 1018 C 20.989789 10.153558 -21.285583 20102
M  V30 1019 O 20.505768 11.090420 -20.567628 20103
M  V30 1020 N 20.760073 10.161417 -22.686801 20104
M  V30 1021 C 17.162297 3.865845 -21.834509 30007
M  V30 1022 C 16.234925 5.001196 -21.619425 30006
M  V30 1023 C 14.818617 4.565817 -21.510450 30005
M  V30 1024 C 14.285709 3.463584 -20.795125 30004 CFG=2
M  V30 1025 O 14.060061 0.091681 -17.957994 30013
M  V30 1026 O 7.575988 -2.106082 -12.125391 39902
M  V30 1027 O 6.031737 -4.145525 -11.825086 39903 CHG=-1
M  V30 END ATOM
M  V30 BEGIN BOND
M  V30 1 1 1 2
M  V30 2 2 2 3
M  V30 3 1 2 4
M  V30 4 1 2 5
M  V30 5 1 5 6
M  V30 6 1 7 6 CFG=1
M  V30 7 1 7 8
M  V30 8 1 8 9
M  V30 9 1 9 10 CFG=1
M  V30 10 1 10 11
M  V30 11 2 11 12
M  V30 12 1 12 13
M  V30 13 1 13 14
M  V30 14 2 14 15
M  V30 15 1 14 16
M  V30 16 1 16 17
M  V30 17 1 17 18
M  V30 18 2 17 19
M  V30 19 1 19 20
M  V30 20 1 9 21
M  V30 21 1 21 22 CFG=3
M  V30 22 1 21 23
M  V30 23 1 23 24 CFG=1
M  V30 24 1 24 25
M  V30 25 2 25 26
M  V30 26 1 25 27
M  V30 27 1 25 28
M  V30 28 1 28 29
M  V30 29 1 30 29 CFG=1
M  V30 30 1 30 31
M  V30 31 1 31 32
M  V30 32 1 32 33 CFG=1
M  V30 33 1 33 34
M  V30 34 2 34 35
M  V30 35 1 34 36
M  V30 36 1 36 37
M  V30 37 2 37 38
M  V30 38 1 37 39
M  V30 39 2 39 40
M  V30 40 1 32 41
M  V30 41 1 41 42 CFG=3
M  V30 42 1 41 43
M  V30 43 1 43 44 CFG=1
M  V30 44 1 44 45
M  V30 45 2 45 46
M  V30 46 1 45 47
M  V30 47 1 45 48
M  V30 48 1 48 49
M  V30 49 1 50 49 CFG=1
M  V30 50 1 50 51
M  V30 51 1 51 52
M  V30 52 1 52 53 CFG=1
M  V30 53 1 53 54
M  V30 54 2 54 55
M  V30 55 1 55 56
M  V30 56 1 56 57
M  V30 57 1 57 58
M  V30 58 2 57 59
M  V30 59 1 59 60
M  V30 60 2 60 61
M  V30 61 1 61 62
M  V30 62 1 52 63
M  V30 63 1 63 64 CFG=3
M  V30 64 1 63 65
M  V30 65 1 65 66 CFG=1
M  V30 66 1 66 67
M  V30 67 2 67 68
M  V30 68 1 67 69
M  V30 69 1 67 70
M  V30 70 1 70 71
M  V30 71 1 72 71 CFG=1
M  V30 72 1 72 73
M  V30 73 1 73 74
M  V30 74 1 74 75 CFG=1
M  V30 75 1 75 76
M  V30 76 2 76 77
M  V30 77 1 77 78
M  V30 78 1 78 79
M  V30 79 2 79 80
M  V30 80 1 79 81
M  V30 81 1 81 82
M  V30 82 1 82 83
M  V30 83 2 82 84
M  V30 84 1 84 85
M  V30 85 1 74 86
M  V30 86 1 86 87 CFG=3
M  V30 87 1 86 88
M  V30 88 1 88 89 CFG=1
M  V30 89 1 89 90
M  V30 90 2 90 91
M  V30 91 1 90 92
M  V30 92 1 90 93
M  V30 93 1 93 94
M  V30 94 1 95 94 CFG=1
M  V30 95 1 95 96
M  V30 96 1 96 97
M  V30 97 1 97 98 CFG=1
M  V30 98 1 98 99
M  V30 99 2 99 100
M  V30 100 1 99 101
M  V30 101 2 101 102
M  V30 102 1 102 103
M  V30 103 1 102 104
M  V30 104 2 104 105
M  V30 105 1 97 106
M  V30 106 1 106 107 CFG=3
M  V30 107 1 106 108
M  V30 108 1 108 109 CFG=1
M  V30 109 1 109 110
M  V30 110 2 110 111
M  V30 111 1 110 112
M  V30 112 1 110 113
M  V30 113 1 113 114
M  V30 114 1 115 114 CFG=1
M  V30 115 1 115 116
M  V30 116 1 116 117
M  V30 117 1 117 118 CFG=1
M  V30 118 1 118 119
M  V30 119 2 119 120
M  V30 120 1 120 121
M  V30 121 1 121 122
M  V30 122 2 122 123
M  V30 123 1 122 124
M  V30 124 1 124 125
M  V30 125 1 125 126
M  V30 126 2 125 127
M  V30 127 1 127 128
M  V30 128 1 117 129
M  V30 129 1 129 130 CFG=3
M  V30 130 1 129 131
M  V30 131 1 131 132 CFG=1
M  V30 132 1 132 133
M  V30 133 2 133 134
M  V30 134 1 133 135
M  V30 135 1 133 136
M  V30 136 1 136 137
M  V30 137 1 138 137 CFG=1
M  V30 138 1 138 139
M  V30 139 1 139 140
M  V30 140 1 140 141 CFG=1
M  V30 141 1 141 142
M  V30 142 2 142 143
M  V30 143 1 142 144
M  V30 144 1 144 145
M  V30 145 2 145 146
M  V30 146 1 145 147
M  V30 147 2 147 148
M  V30 148 1 140 149
M  V30 149 1 149 150 CFG=3
M  V30 150 1 149 151
M  V30 151 1 151 152 CFG=1
M  V30 152 1 152 153
M  V30 153 2 153 154
M  V30 154 1 153 155
M  V30 155 1 153 156
M  V30 156 1 156 157
M  V30 157 1 158 157 CFG=1
M  V30 158 1 158 159
M  V30 159 1 159 160
M  V30 160 1 160 161 CFG=1
M  V30 161 1 161 162
M  V30 162 2 162 163
M  V30 163 1 163 164
M  V30 164 1 164 165
M  V30 165 2 165 166
M  V30 166 1 165 167
M  V30 167 1 167 168
M  V30 168 1 168 169
M  V30 169 2 168 170
M  V30 170 1 170 171
M  V30 171 1 160 172
M  V30 172 1 172 173 CFG=3
M  V30 173 1 172 174
M  V30 174 1 174 175 CFG=1
M  V30 175 1 175 176
M  V30 176 2 176 177
M  V30 177 1 176 178
M  V30 178 1 176 179
M  V30 179 1 179 180
M  V30 180 1 181 180 CFG=1
M  V30 181 1 181 182
M  V30 182 1 182 183
M  V30 183 1 183 184 CFG=1
M  V30 184 1 184 185
M  V30 185 2 185 186
M  V30 186 1 186 187
M  V30 187 1 187 188
M  V30 188 1 188 189
M  V30 189 2 188 190
M  V30 190 1 190 191
M  V30 191 2 191 192
M  V30 192 1 192 193
M  V30 193 1 183 194
M  V30 194 1 194 195 CFG=3
M  V30 195 1 194 196
M  V30 196 1 196 197 CFG=1
M  V30 197 1 197 198
M  V30 198 2 198 199
M  V30 199 1 198 200
M  V30 200 1 198 201
M  V30 201 1 201 202
M  V30 202 1 203 202 CFG=1
M  V30 203 1 203 204
M  V30 204 1 204 205
M  V30 205 1 205 206 CFG=1
M  V30 206 1 206 207
M  V30 207 2 207 208
M  V30 208 1 207 209
M  V30 209 1 209 210
M  V30 210 2 210 211
M  V30 211 1 210 212
M  V30 212 2 212 213
M  V30 213 1 205 214
M  V30 214 1 214 215 CFG=3
M  V30 215 1 214 216
M  V30 216 1 216 217 CFG=1
M  V30 217 1 217 218
M  V30 218 2 218 219
M  V30 219 1 218 220
M  V30 220 1 218 221
M  V30 221 1 221 222
M  V30 222 1 223 222 CFG=1
M  V30 223 1 223 224
M  V30 224 1 224 225
M  V30 225 1 225 226 CFG=1
M  V30 226 1 226 227
M  V30 227 2 227 228
M  V30 228 1 228 229
M  V30 229 1 229 230
M  V30 230 1 230 231
M  V30 231 2 230 232
M  V30 232 1 232 233
M  V30 233 2 233 234
M  V30 234 1 234 235
M  V30 235 1 225 236
M  V30 236 1 236 237 CFG=3
M  V30 237 1 236 238
M  V30 238 1 238 239 CFG=1
M  V30 239 1 239 240
M  V30 240 2 240 241
M  V30 241 1 240 242
M  V30 242 1 240 243
M  V30 243 1 243 244
M  V30 244 1 245 244 CFG=1
M  V30 245 1 245 246
M  V30 246 1 246 247
M  V30 247 1 247 248 CFG=1
M  V30 248 1 248 249
M  V30 249 2 249 250
M  V30 250 1 250 251
M  V30 251 1 251 252
M  V30 252 1 252 253
M  V30 253 2 252 254
M  V30 254 1 254 255
M  V30 255 2 255 256
M  V30 256 1 256 257
M  V30 257 1 247 258
M  V30 258 1 258 259 CFG=3
M  V30 259 1 258 260
M  V30 260 1 260 261 CFG=1
M  V30 261 1 261 262
M  V30 262 2 262 263
M  V30 263 1 262 264
M  V30 264 1 262 265
M  V30 265 1 265 266
M  V30 266 1 267 266 CFG=1
M  V30 267 1 267 268
M  V30 268 1 268 269
M  V30 269 1 269 270 CFG=1
M  V30 270 1 270 271
M  V30 271 2 271 272
M  V30 272 1 271 273
M  V30 273 1 273 274
M  V30 274 2 274 275
M  V30 275 1 274 276
M  V30 276 2 276 277
M  V30 277 1 269 278
M  V30 278 1 278 279 CFG=3
M  V30 279 1 278 280
M  V30 280 1 280 281 CFG=1
M  V30 281 1 281 282
M  V30 282 2 282 283
M  V30 283 1 282 284
M  V30 284 1 282 285
M  V30 285 1 285 286
M  V30 286 1 287 286 CFG=1
M  V30 287 1 287 288
M  V30 288 1 288 289
M  V30 289 1 289 290 CFG=1
M  V30 290 1 290 291
M  V30 291 2 291 292
M  V30 292 1 291 293
M  V30 293 2 293 294
M  V30 294 1 294 295
M  V30 295 1 294 296
M  V30 296 2 296 297
M  V30 297 1 289 298
M  V30 298 1 298 299 CFG=3
M  V30 299 1 298 300
M  V30 300 1 300 301 CFG=1
M  V30 301 1 301 302
M  V30 302 2 302 303
M  V30 303 1 302 304
M  V30 304 1 302 305
M  V30 305 1 305 306
M  V30 306 1 307 306 CFG=1
M  V30 307 1 307 308
M  V30 308 1 308 309
M  V30 309 1 309 310 CFG=1
M  V30 310 1 310 311
M  V30 311 2 311 312
M  V30 312 1 312 313
M  V30 313 1 313 314
M  V30 314 2 314 315
M  V30 315 1 314 316
M  V30 316 1 316 317
M  V30 317 1 317 318
M  V30 318 2 317 319
M  V30 319 1 319 320
M  V30 320 1 309 321
M  V30 321 1 321 322 CFG=3
M  V30 322 1 321 323
M  V30 323 1 323 324 CFG=1
M  V30 324 1 324 325
M  V30 325 2 325 326
M  V30 326 1 325 327
M  V30 327 1 325 328
M  V30 328 1 328 329
M  V30 329 1 330 329 CFG=1
M  V30 330 1 330 331
M  V30 331 1 331 332
M  V30 332 1 332 333 CFG=1
M  V30 333 1 333 334
M  V30 334 2 334 335
M  V30 335 1 334 336
M  V30 336 1 336 337
M  V30 337 2 337 338
M  V30 338 1 337 339
M  V30 339 2 339 340
M  V30 340 1 332 341
M  V30 341 1 341 342 CFG=3
M  V30 342 1 341 343
M  V30 343 1 343 344 CFG=1
M  V30 344 1 344 345
M  V30 345 2 345 346
M  V30 346 1 345 347
M  V30 347 1 345 348
M  V30 348 1 348 349
M  V30 349 1 350 349 CFG=1
M  V30 350 1 350 351
M  V30 351 1 351 352
M  V30 352 1 352 353 CFG=1
M  V30 353 1 353 354
M  V30 354 2 354 355
M  V30 355 1 354 356
M  V30 356 2 356 357
M  V30 357 1 357 358
M  V30 358 1 357 359
M  V30 359 2 359 360
M  V30 360 1 352 361
M  V30 361 1 361 362 CFG=3
M  V30 362 1 361 363
M  V30 363 1 363 364 CFG=1
M  V30 364 1 364 365
M  V30 365 2 365 366
M  V30 366 1 365 367
M  V30 367 1 365 368
M  V30 368 1 368 369
M  V30 369 1 370 369 CFG=1
M  V30 370 1 370 371
M  V30 371 1 371 372
M  V30 372 1 372 373 CFG=1
M  V30 373 1 373 374
M  V30 374 2 374 375
M  V30 375 1 375 376
M  V30 376 1 376 377
M  V30 377 1 377 378
M  V30 378 2 377 379
M  V30 379 1 379 380
M  V30 380 2 380 381
M  V30 381 1 381 382
M  V30 382 1 372 383
M  V30 383 1 383 384 CFG=3
M  V30 384 1 383 385
M  V30 385 1 385 386 CFG=1
M  V30 386 1 386 387
M  V30 387 2 387 388
M  V30 388 1 387 389
M  V30 389 1 387 390
M  V30 390 1 390 391
M  V30 391 1 392 391 CFG=1
M  V30 392 1 392 393
M  V30 393 1 393 394
M  V30 394 1 394 395 CFG=1
M  V30 395 1 395 396
M  V30 396 2 396 397
M  V30 397 1 396 398
M  V30 398 1 398 399
M  V30 399 2 399 400
M  V30 400 1 399 401
M  V30 401 2 401 402
M  V30 402 1 394 403
M  V30 403 1 403 404 CFG=3
M  V30 404 1 403 405
M  V30 405 1 405 406 CFG=1
M  V30 406 1 406 407
M  V30 407 2 407 408
M  V30 408 1 407 409
M  V30 409 1 407 410
M  V30 410 1 410 411
M  V30 411 1 412 411 CFG=1
M  V30 412 1 412 413
M  V30 413 1 413 414
M  V30 414 1 414 415 CFG=1
M  V30 415 1 415 416
M  V30 416 2 416 417
M  V30 417 1 416 418
M  V30 418 1 418 419
M  V30 419 2 419 420
M  V30 420 1 419 421
M  V30 421 2 421 422
M  V30 422 1 414 423
M  V30 423 1 423 424 CFG=3
M  V30 424 1 423 425
M  V30 425 1 425 426 CFG=1
M  V30 426 1 426 427
M  V30 427 2 427 428
M  V30 428 1 427 429
M  V30 429 1 427 430
M  V30 430 1 430 431
M  V30 431 1 432 431 CFG=1
M  V30 432 1 432 433
M  V30 433 1 433 434
M  V30 434 1 434 435 CFG=1
M  V30 435 1 435 436
M  V30 436 2 436 437
M  V30 437 1 436 438
M  V30 438 1 438 439
M  V30 439 2 439 440
M  V30 440 1 439 441
M  V30 441 2 441 442
M  V30 442 1 434 443
M  V30 443 1 443 444 CFG=3
M  V30 444 1 443 445
M  V30 445 1 445 446 CFG=1
M  V30 446 1 447 448
M  V30 447 1 449 448 CFG=3
M  V30 448 1 449 450
M  V30 449 1 450 451
M  V30 450 1 451 452 CFG=3
M  V30 451 1 452 453
M  V30 452 2 453 454
M  V30 453 1 454 455
M  V30 454 1 455 456
M  V30 455 1 456 457
M  V30 456 2 456 458
M  V30 457 1 458 459
M  V30 458 2 459 460
M  V30 459 1 460 461
M  V30 460 1 451 462
M  V30 461 1 462 463 CFG=1
M  V30 462 1 462 464
M  V30 463 1 464 465 CFG=3
M  V30 464 1 465 466
M  V30 465 2 466 467
M  V30 466 1 466 468
M  V30 467 1 466 469
M  V30 468 1 469 470
M  V30 469 1 471 470 CFG=3
M  V30 470 1 471 472
M  V30 471 1 472 473
M  V30 472 1 473 474 CFG=3
M  V30 473 1 474 475
M  V30 474 2 475 476
M  V30 475 1 475 477
M  V30 476 1 477 478
M  V30 477 2 478 479
M  V30 478 1 478 480
M  V30 479 2 480 481
M  V30 480 1 473 482
M  V30 481 1 482 483 CFG=1
M  V30 482 1 482 484
M  V30 483 1 484 485 CFG=3
M  V30 484 1 485 486
M  V30 485 2 486 487
M  V30 486 1 486 488
M  V30 487 1 486 489
M  V30 488 1 489 490
M  V30 489 1 491 490 CFG=3
M  V30 490 1 491 492
M  V30 491 1 492 493
M  V30 492 1 493 494 CFG=3
M  V30 493 1 494 495
M  V30 494 2 495 496
M  V30 495 1 496 497
M  V30 496 1 497 498
M  V30 497 2 498 499
M  V30 498 1 498 500
M  V30 499 1 500 501
M  V30 500 1 501 502
M  V30 501 2 501 503
M  V30 502 1 503 504
M  V30 503 1 493 505
M  V30 504 1 505 506 CFG=1
M  V30 505 1 505 507
M  V30 506 1 507 508 CFG=3
M  V30 507 1 508 509
M  V30 508 2 509 510
M  V30 509 1 509 511
M  V30 510 1 509 512
M  V30 511 1 512 513
M  V30 512 1 514 513 CFG=3
M  V30 513 1 514 515
M  V30 514 1 515 516
M  V30 515 1 516 517 CFG=3
M  V30 516 1 517 518
M  V30 517 2 518 519
M  V30 518 1 519 520
M  V30 519 1 520 521
M  V30 520 1 521 522
M  V30 521 2 521 523
M  V30 522 1 523 524
M  V30 523 2 524 525
M  V30 524 1 525 526
M  V30 525 1 516 527
M  V30 526 1 527 528 CFG=1
M  V30 527 1 527 529
M  V30 528 1 529 530 CFG=3
M  V30 529 1 530 531
M  V30 530 2 531 532
M  V30 531 1 531 533
M  V30 532 1 531 534
M  V30 533 1 534 535
M  V30 534 1 536 535 CFG=3
M  V30 535 1 536 537
M  V30 536 1 537 538
M  V30 537 1 538 539 CFG=3
M  V30 538 1 539 540
M  V30 539 2 540 541
M  V30 540 1 540 542
M  V30 541 2 542 543
M  V30 542 1 543 544
M  V30 543 1 543 545
M  V30 544 2 545 546
M  V30 545 1 538 547
M  V30 546 1 547 548 CFG=1
M  V30 547 1 547 549
M  V30 548 1 549 550 CFG=3
M  V30 549 1 550 551
M  V30 550 2 551 552
M  V30 551 1 551 553
M  V30 552 1 551 554
M  V30 553 1 554 555
M  V30 554 1 556 555 CFG=3
M  V30 555 1 556 557
M  V30 556 1 557 558
M  V30 557 1 558 559 CFG=3
M  V30 558 1 559 560
M  V30 559 2 560 561
M  V30 560 1 561 562
M  V30 561 1 562 563
M  V30 562 2 563 564
M  V30 563 1 563 565
M  V30 564 1 565 566
M  V30 565 1 566 567
M  V30 566 2 566 568
M  V30 567 1 568 569
M  V30 568 1 558 570
M  V30 569 1 570 571 CFG=1
M  V30 570 1 570 572
M  V30 571 1 572 573 CFG=3
M  V30 572 1 573 574
M  V30 573 2 574 575
M  V30 574 1 574 576
M  V30 575 1 574 577
M  V30 576 1 577 578
M  V30 577 1 579 578 CFG=3
M  V30 578 1 579 580
M  V30 579 1 580 581
M  V30 580 1 581 582 CFG=3
M  V30 581 1 582 583
M  V30 582 2 583 584
M  V30 583 1 584 585
M  V30 584 1 585 586
M  V30 585 1 586 587
M  V30 586 2 586 588
M  V30 587 1 588 589
M  V30 588 2 589 590
M  V30 589 1 590 591
M  V30 590 1 581 592
M  V30 591 1 592 593 CFG=1
M  V30 592 1 592 594
M  V30 593 1 594 595 CFG=3
M  V30 594 1 595 596
M  V30 595 2 596 597
M  V30 596 1 596 598
M  V30 597 1 596 599
M  V30 598 1 599 600
M  V30 599 1 601 600 CFG=3
M  V30 600 1 601 602
M  V30 601 1 602 603
M  V30 602 1 603 604 CFG=3
M  V30 603 1 604 605
M  V30 604 2 605 606
M  V30 605 1 605 607
M  V30 606 1 607 608
M  V30 607 2 608 609
M  V30 608 1 608 610
M  V30 609 2 610 611
M  V30 610 1 603 612
M  V30 611 1 612 613 CFG=1
M  V30 612 1 612 614
M  V30 613 1 614 615 CFG=3
M  V30 614 1 615 616
M  V30 615 2 616 617
M  V30 616 1 616 618
M  V30 617 1 616 619
M  V30 618 1 619 620
M  V30 619 1 621 620 CFG=3
M  V30 620 1 621 622
M  V30 621 1 622 623
M  V30 622 1 623 624 CFG=3
M  V30 623 1 624 625
M  V30 624 2 625 626
M  V30 625 1 625 627
M  V30 626 1 627 628
M  V30 627 2 628 629
M  V30 628 1 628 630
M  V30 629 2 630 631
M  V30 630 1 623 632
M  V30 631 1 632 633 CFG=1
M  V30 632 1 632 634
M  V30 633 1 634 635 CFG=3
M  V30 634 1 635 636
M  V30 635 2 636 637
M  V30 636 1 636 638
M  V30 637 1 636 639
M  V30 638 1 639 640
M  V30 639 1 641 640 CFG=3
M  V30 640 1 641 642
M  V30 641 1 642 643
M  V30 642 1 643 644 CFG=3
M  V30 643 1 644 645
M  V30 644 2 645 646
M  V30 645 1 646 647
M  V30 646 1 647 648
M  V30 647 1 648 649
M  V30 648 2 648 650
M  V30 649 1 650 651
M  V30 650 2 651 652
M  V30 651 1 652 653
M  V30 652 1 643 654
M  V30 653 1 654 655 CFG=1
M  V30 654 1 654 656
M  V30 655 1 656 657 CFG=3
M  V30 656 1 657 658
M  V30 657 2 658 659
M  V30 658 1 658 660
M  V30 659 1 658 661
M  V30 660 1 661 662
M  V30 661 1 663 662 CFG=3
M  V30 662 1 663 664
M  V30 663 1 664 665
M  V30 664 1 665 666 CFG=3
M  V30 665 1 666 667
M  V30 666 2 667 668
M  V30 667 1 667 669
M  V30 668 1 669 670
M  V30 669 2 670 671
M  V30 670 1 670 672
M  V30 671 2 672 673
M  V30 672 1 665 674
M  V30 673 1 674 675 CFG=1
M  V30 674 1 674 676
M  V30 675 1 676 677 CFG=3
M  V30 676 1 677 678
M  V30 677 2 678 679
M  V30 678 1 678 680
M  V30 679 1 678 681
M  V30 680 1 681 682
M  V30 681 1 683 682 CFG=3
M  V30 682 1 683 684
M  V30 683 1 684 685
M  V30 684 1 685 686 CFG=3
M  V30 685 1 686 687
M  V30 686 2 687 688
M  V30 687 1 687 689
M  V30 688 2 689 690
M  V30 689 1 690 691
M  V30 690 1 690 692
M  V30 691 2 692 693
M  V30 692 1 685 694
M  V30 693 1 694 695 CFG=1
M  V30 694 1 694 696
M  V30 695 1 696 697 CFG=3
M  V30 696 1 697 698
M  V30 697 2 698 699
M  V30 698 1 698 700
M  V30 699 1 698 701
M  V30 700 1 701 702
M  V30 701 1 703 702 CFG=3
M  V30 702 1 703 704
M  V30 703 1 704 705
M  V30 704 1 705 706 CFG=3
M  V30 705 1 706 707
M  V30 706 2 707 708
M  V30 707 1 708 709
M  V30 708 1 709 710
M  V30 709 1 710 711
M  V30 710 2 710 712
M  V30 711 1 712 713
M  V30 712 2 713 714
M  V30 713 1 714 715
M  V30 714 1 705 716
M  V30 715 1 716 717 CFG=1
M  V30 716 1 716 718
M  V30 717 1 718 719 CFG=3
M  V30 718 1 719 720
M  V30 719 2 720 721
M  V30 720 1 720 722
M  V30 721 1 720 723
M  V30 722 1 723 724
M  V30 723 1 725 724 CFG=3
M  V30 724 1 725 726
M  V30 725 1 726 727
M  V30 726 1 727 728 CFG=3
M  V30 727 1 728 729
M  V30 728 2 729 730
M  V30 729 1 729 731
M  V30 730 2 731 732
M  V30 731 1 732 733
M  V30 732 1 732 734
M  V30 733 2 734 735
M  V30 734 1 727 736
M  V30 735 1 736 737 CFG=1
M  V30 736 1 736 738
M  V30 737 1 738 739 CFG=3
M  V30 738 1 739 740
M  V30 739 2 740 741
M  V30 740 1 740 742
M  V30 741 1 740 743
M  V30 742 1 743 744
M  V30 743 1 745 744 CFG=3
M  V30 744 1 745 746
M  V30 745 1 746 747
M  V30 746 1 747 748 CFG=3
M  V30 747 1 748 749
M  V30 748 2 749 750
M  V30 749 1 750 751
M  V30 750 1 751 752
M  V30 751 2 752 753
M  V30 752 1 752 754
M  V30 753 1 754 755
M  V30 754 1 755 756
M  V30 755 2 755 757
M  V30 756 1 757 758
M  V30 757 1 747 759
M  V30 758 1 759 760 CFG=1
M  V30 759 1 759 761
M  V30 760 1 761 762 CFG=3
M  V30 761 1 762 763
M  V30 762 2 763 764
M  V30 763 1 763 765
M  V30 764 1 763 766
M  V30 765 1 766 767
M  V30 766 1 768 767 CFG=3
M  V30 767 1 768 769
M  V30 768 1 769 770
M  V30 769 1 770 771 CFG=3
M  V30 770 1 771 772
M  V30 771 2 772 773
M  V30 772 1 772 774
M  V30 773 2 774 775
M  V30 774 1 775 776
M  V30 775 1 775 777
M  V30 776 2 777 778
M  V30 777 1 770 779
M  V30 778 1 779 780 CFG=1
M  V30 779 1 779 781
M  V30 780 1 781 782 CFG=3
M  V30 781 1 782 783
M  V30 782 2 783 784
M  V30 783 1 783 785
M  V30 784 1 783 786
M  V30 785 1 786 787
M  V30 786 1 788 787 CFG=3
M  V30 787 1 788 789
M  V30 788 1 789 790
M  V30 789 1 790 791 CFG=3
M  V30 790 1 791 792
M  V30 791 2 792 793
M  V30 792 1 792 794
M  V30 793 1 794 795
M  V30 794 2 795 796
M  V30 795 1 795 797
M  V30 796 2 797 798
M  V30 797 1 790 799
M  V30 798 1 799 800 CFG=1
M  V30 799 1 799 801
M  V30 800 1 801 802 CFG=3
M  V30 801 1 802 803
M  V30 802 2 803 804
M  V30 803 1 803 805
M  V30 804 1 803 806
M  V30 805 1 806 807
M  V30 806 1 808 807 CFG=3
M  V30 807 1 808 809
M  V30 808 1 809 810
M  V30 809 1 810 811 CFG=3
M  V30 810 1 811 812
M  V30 811 2 812 813
M  V30 812 1 813 814
M  V30 813 1 814 815
M  V30 814 1 815 816
M  V30 815 2 815 817
M  V30 816 1 817 818
M  V30 817 2 818 819
M  V30 818 1 819 820
M  V30 819 1 810 821
M  V30 820 1 821 822 CFG=1
M  V30 821 1 821 823
M  V30 822 1 823 824 CFG=3
M  V30 823 1 824 825
M  V30 824 2 825 826
M  V30 825 1 825 827
M  V30 826 1 825 828
M  V30 827 1 828 829
M  V30 828 1 830 829 CFG=3
M  V30 829 1 830 831
M  V30 830 1 831 832
M  V30 831 1 832 833 CFG=3
M  V30 832 1 833 834
M  V30 833 2 834 835
M  V30 834 1 834 836
M  V30 835 2 836 837
M  V30 836 1 837 838
M  V30 837 1 837 839
M  V30 838 2 839 840
M  V30 839 1 832 841
M  V30 840 1 841 842 CFG=1
M  V30 841 1 841 843
M  V30 842 1 843 844 CFG=3
M  V30 843 1 844 845
M  V30 844 2 845 846
M  V30 845 1 845 847
M  V30 846 1 845 848
M  V30 847 1 848 849
M  V30 848 1 850 849 CFG=3
M  V30 849 1 850 851
M  V30 850 1 851 852
M  V30 851 1 852 853 CFG=3
M  V30 852 1 853 854
M  V30 853 2 854 855
M  V30 854 1 854 856
M  V30 855 1 856 857
M  V30 856 2 857 858
M  V30 857 1 857 859
M  V30 858 2 859 860
M  V30 859 1 852 861
M  V30 860 1 861 862 CFG=1
M  V30 861 1 861 863
M  V30 862 1 863 864 CFG=3
M  V30 863 1 864 865
M  V30 864 2 865 866
M  V30 865 1 865 867
M  V30 866 1 865 868
M  V30 867 1 868 869
M  V30 868 1 870 869 CFG=3
M  V30 869 1 870 871
M  V30 870 1 871 872
M  V30 871 1 872 873 CFG=3
M  V30 872 1 873 874
M  V30 873 2 874 875
M  V30 874 1 874 876
M  V30 875 1 876 877
M  V30 876 2 877 878
M  V30 877 1 877 879
M  V30 878 2 879 880
M  V30 879 1 872 881
M  V30 880 1 881 882 CFG=1
M  V30 881 1 881 883
M  V30 882 1 883 884 CFG=3
M  V30 883 1 884 885
M  V30 884 1 885 886
M  V30 885 1 886 887
M  V30 886 1 887 888
M  V30 887 1 888 889
M  V30 888 1 889 890
M  V30 889 1 890 891
M  V30 890 1 891 892
M  V30 891 1 892 893
M  V30 892 1 893 894
M  V30 893 1 894 895
M  V30 894 1 895 896
M  V30 895 1 897 896 CFG=3
M  V30 896 1 897 898
M  V30 897 1 898 899 CFG=3
M  V30 898 1 899 900
M  V30 899 1 900 901
M  V30 900 1 901 902
M  V30 901 2 902 903
M  V30 902 1 903 904
M  V30 903 1 904 905
M  V30 904 1 905 906
M  V30 905 1 906 907
M  V30 906 1 907 908
M  V30 907 1 909 908 CFG=1
M  V30 908 1 909 910
M  V30 909 1 910 911
M  V30 910 1 912 911 CFG=3
M  V30 911 1 912 913
M  V30 912 1 913 914
M  V30 913 2 914 915
M  V30 914 1 914 916
M  V30 915 1 916 917 CFG=3
M  V30 916 1 917 918
M  V30 917 2 918 919
M  V30 918 1 919 920
M  V30 919 2 920 921
M  V30 920 1 921 922
M  V30 921 1 921 923
M  V30 922 2 923 924
M  V30 923 1 916 925
M  V30 924 1 925 926
M  V30 925 2 926 927
M  V30 926 1 926 928
M  V30 927 1 928 929 CFG=3
M  V30 928 1 929 930
M  V30 929 1 928 931
M  V30 930 1 931 932
M  V30 931 2 932 933
M  V30 932 1 932 934
M  V30 933 1 934 935
M  V30 934 1 935 936 CFG=1
M  V30 935 1 935 937
M  V30 936 1 937 938
M  V30 937 1 934 939 CFG=3
M  V30 938 1 939 940
M  V30 939 2 940 941
M  V30 940 1 940 942
M  V30 941 1 942 943 CFG=1
M  V30 942 1 943 944
M  V30 943 2 944 945
M  V30 944 1 944 946
M  V30 945 1 946 947
M  V30 946 1 947 948
M  V30 947 2 948 949
M  V30 948 1 948 950
M  V30 949 1 950 951 CFG=3
M  V30 950 1 951 952
M  V30 951 1 952 953
M  V30 952 1 952 954
M  V30 953 1 950 955
M  V30 954 1 955 956
M  V30 955 2 956 957
M  V30 956 1 956 958
M  V30 957 1 958 959 CFG=3
M  V30 958 1 959 960
M  V30 959 2 960 961
M  V30 960 1 961 962
M  V30 961 1 962 963
M  V30 962 2 963 964
M  V30 963 1 958 965
M  V30 964 1 965 966
M  V30 965 2 966 967
M  V30 966 1 966 968
M  V30 967 1 968 969 CFG=1
M  V30 968 1 968 970
M  V30 969 1 970 971
M  V30 970 2 971 972
M  V30 971 1 971 973
M  V30 972 1 973 974 CFG=3
M  V30 973 1 974 975
M  V30 974 2 975 976
M  V30 975 1 975 977
M  V30 976 1 973 978
M  V30 977 1 978 979
M  V30 978 2 979 980
M  V30 979 1 979 981
M  V30 980 1 981 982
M  V30 981 1 982 983
M  V30 982 2 983 984
M  V30 983 1 983 985
M  V30 984 1 985 986 CFG=1
M  V30 985 1 986 987
M  V30 986 1 985 988
M  V30 987 1 988 989
M  V30 988 2 989 990
M  V30 989 1 989 991
M  V30 990 1 991 992 CFG=1
M  V30 991 1 991 993
M  V30 992 1 993 994
M  V30 993 1 994 995
M  V30 994 1 995 996
M  V30 995 2 996 997
M  V30 996 1 996 998
M  V30 997 1 998 999
M  V30 998 1 999 1000
M  V30 999 1 1000 1001
M  V30 1000 1 1001 1002
M  V30 1001 1 1002 1003
M  V30 1002 1 1002 1004
M  V30 1003 2 1004 1005
M  V30 1004 1 1004 1006
M  V30 1005 1 1006 1007
M  V30 1006 1 1007 1008
M  V30 1007 1 1000 1009
M  V30 1008 2 1009 1010
M  V30 1009 1 1009 1011
M  V30 1010 1 1011 1012
M  V30 1011 1 1012 1013
M  V30 1012 1 982 1014
M  V30 1013 1 1014 1015
M  V30 1014 1 1015 1016
M  V30 1015 2 911 1017
M  V30 1016 1 909 1018
M  V30 1017 2 1018 1019
M  V30 1018 1 1018 1020
M  V30 1019 1 904 1021
M  V30 1020 1 1021 1022
M  V30 1021 1 1022 1023
M  V30 1022 1 1024 1023 CFG=3
M  V30 1023 2 894 1025
M  V30 1024 2 885 1026
M  V30 1025 1 885 1027
M  V30 1026 1 23 7
M  V30 1027 1 43 30
M  V30 1028 1 65 50
M  V30 1029 1 88 72
M  V30 1030 1 108 95
M  V30 1031 1 131 115
M  V30 1032 1 151 138
M  V30 1033 1 174 158
M  V30 1034 1 196 181
M  V30 1035 1 216 203
M  V30 1036 1 238 223
M  V30 1037 1 260 245
M  V30 1038 1 280 267
M  V30 1039 1 300 287
M  V30 1040 1 323 307
M  V30 1041 1 343 330
M  V30 1042 1 363 350
M  V30 1043 1 385 370
M  V30 1044 1 405 392
M  V30 1045 1 425 412
M  V30 1046 1 445 432
M  V30 1047 1 464 449
M  V30 1048 1 484 471
M  V30 1049 1 507 491
M  V30 1050 1 529 514
M  V30 1051 1 549 536
M  V30 1052 1 572 556
M  V30 1053 1 594 579
M  V30 1054 1 614 601
M  V30 1055 1 634 621
M  V30 1056 1 656 641
M  V30 1057 1 676 663
M  V30 1058 1 696 683
M  V30 1059 1 718 703
M  V30 1060 1 738 725
M  V30 1061 1 761 745
M  V30 1062 1 781 768
M  V30 1063 1 801 788
M  V30 1064 1 823 808
M  V30 1065 1 843 830
M  V30 1066 1 863 850
M  V30 1067 1 883 870
M  V30 1068 1 1024 897
M  V30 1069 1 20 10
M  V30 1070 1 40 33
M  V30 1071 1 62 53
M  V30 1072 1 85 75
M  V30 1073 1 105 98
M  V30 1074 1 128 118
M  V30 1075 1 148 141
M  V30 1076 1 171 161
M  V30 1077 1 193 184
M  V30 1078 1 213 206
M  V30 1079 1 235 226
M  V30 1080 1 257 248
M  V30 1081 1 277 270
M  V30 1082 1 297 290
M  V30 1083 1 320 310
M  V30 1084 1 340 333
M  V30 1085 1 360 353
M  V30 1086 1 382 373
M  V30 1087 1 402 395
M  V30 1088 1 422 415
M  V30 1089 1 442 435
M  V30 1090 1 461 452
M  V30 1091 1 481 474
M  V30 1092 1 504 494
M  V30 1093 1 526 517
M  V30 1094 1 546 539
M  V30 1095 1 569 559
M  V30 1096 1 591 582
M  V30 1097 1 611 604
M  V30 1098 1 631 624
M  V30 1099 1 653 644
M  V30 1100 1 673 666
M  V30 1101 1 693 686
M  V30 1102 1 715 706
M  V30 1103 1 735 728
M  V30 1104 1 758 748
M  V30 1105 1 778 771
M  V30 1106 1 798 791
M  V30 1107 1 820 811
M  V30 1108 1 840 833
M  V30 1109 1 860 853
M  V30 1110 1 880 873
M  V30 1111 1 1024 898
M  V30 1112 2 20 13
M  V30 1113 2 62 56
M  V30 1114 2 85 78
M  V30 1115 2 128 121
M  V30 1116 2 171 164
M  V30 1117 2 193 187
M  V30 1118 2 235 229
M  V30 1119 2 257 251
M  V30 1120 2 320 313
M  V30 1121 2 382 376
M  V30 1122 2 461 455
M  V30 1123 2 504 497
M  V30 1124 2 526 520
M  V30 1125 2 569 562
M  V30 1126 2 591 585
M  V30 1127 2 653 647
M  V30 1128 2 715 709
M  V30 1129 2 758 751
M  V30 1130 2 820 814
M  V30 1131 2 1021 901
M  V30 1132 1 1008 912
M  V30 1133 1 924 918
M  V30 1134 1 1013 942
M  V30 1135 1 964 960
M  V30 1136 1 981 1016 CFG=3
M  V30 1137 1 1003 998
M  V30 END BOND
M  V30 END CTAB
M  END
>  <MODEL_SCOPE>  (1) 
Generated unbound conformation; no receptor; WP4 failure unchanged

$$$$
